<edges xmlns:xsi="http://www.w3.org/2001/XMLSchema-instance" xsi:noNamespaceSchemaLocation="http://sumo.dlr.de/xsd/edges_file.xsd">

   <!-- <edge id="beg" speed="27.80" numLanes="3" from="beg" to="center"/>
   <edge id="end" speed="27.80" numLanes="3" from="center" to="end"/> -->
    <!-- <edge id="bottom" from="bottom" to="right" length="1000.0" shape="0.00,-636.62 25.63,-636.10 51.23,-634.56 76.74,-631.98 102.12,-628.38 127.34,-623.75 152.35,-618.12 177.12,-611.48 201.60,-603.86 225.75,-595.25 249.53,-585.68 272.91,-575.15 295.85,-563.70 318.31,-551.33 340.25,-538.06 361.64,-523.93 382.44,-508.94 402.63,-493.13 422.16,-476.52 441.00,-459.13 459.13,-441.00 476.52,-422.16 493.13,-402.63 508.94,-382.44 523.93,-361.64 538.06,-340.25 551.33,-318.31 563.70,-295.85 575.15,-272.91 585.68,-249.53 595.25,-225.75 603.86,-201.60 611.48,-177.12 618.12,-152.35 623.75,-127.34 628.38,-102.12 631.98,-76.74 634.56,-51.23 636.10,-25.63 636.62,0.00"/>
    <edge id="right" from="right" to="top" length="1000.0"  shape="636.62,0.00 636.10,25.63 634.56,51.23 631.98,76.74 628.38,102.12 623.75,127.34 618.12,152.35 611.48,177.12 603.86,201.60 595.25,225.75 585.68,249.53 575.15,272.91 563.70,295.85 551.33,318.31 538.06,340.25 523.93,361.64 508.94,382.44 493.13,402.63 476.52,422.16 459.13,441.00 441.00,459.13 422.16,476.52 402.63,493.13 382.44,508.94 361.64,523.93 340.25,538.06 318.31,551.33 295.85,563.70 272.91,575.15 249.53,585.68 225.75,595.25 201.60,603.86 177.12,611.48 152.35,618.12 127.34,623.75 102.12,628.38 76.74,631.98 51.23,634.56 25.63,636.10 0.00,636.62"/>
    <edge id="top" from="top" to="left" length="1000.0"  shape="0.00,636.62 -25.63,636.10 -51.23,634.56 -76.74,631.98 -102.12,628.38 -127.34,623.75 -152.35,618.12 -177.12,611.48 -201.60,603.86 -225.75,595.25 -249.53,585.68 -272.91,575.15 -295.85,563.70 -318.31,551.33 -340.25,538.06 -361.64,523.93 -382.44,508.94 -402.63,493.13 -422.16,476.52 -441.00,459.13 -459.13,441.00 -476.52,422.16 -493.13,402.63 -508.94,382.44 -523.93,361.64 -538.06,340.25 -551.33,318.31 -563.70,295.85 -575.15,272.91 -585.68,249.53 -595.25,225.75 -603.86,201.60 -611.48,177.12 -618.12,152.35 -623.75,127.34 -628.38,102.12 -631.98,76.74 -634.56,51.23 -636.10,25.63 -636.62,0.00"/>
    <edge id="left" from="left" to="bottom" length="1000.0" shape="-636.62,0.00 -636.10,-25.63 -634.56,-51.23 -631.98,-76.74 -628.38,-102.12 -623.75,-127.34 -618.12,-152.35 -611.48,-177.12 -603.86,-201.60 -595.25,-225.75 -585.68,-249.53 -575.15,-272.91 -563.70,-295.85 -551.33,-318.31 -538.06,-340.25 -523.93,-361.64 -508.94,-382.44 -493.13,-402.63 -476.52,-422.16 -459.13,-441.00 -441.00,-459.13 -422.16,-476.52 -402.63,-493.13 -382.44,-508.94 -361.64,-523.93 -340.25,-538.06 -318.31,-551.33 -295.85,-563.70 -272.91,-575.15 -249.53,-585.68 -225.75,-595.25 -201.60,-603.86 -177.12,-611.48 -152.35,-618.12 -127.34,-623.75 -102.12,-628.38 -76.74,-631.98 -51.23,-634.56 -25.63,-636.10 -0.00,-636.62"/> -->

    <edge id="bottom" from="bottom" to="right" length="250.0" shape="0.00,-159.15 6.41,-159.03 12.81,-158.64 19.18,-157.99 25.53,-157.09 31.84,-155.94 38.09,-154.53 44.28,-152.87 50.40,-150.96 56.44,-148.81 62.38,-146.42 68.23,-143.79 73.96,-140.92 79.58,-137.83 85.06,-134.52 90.41,-130.98 95.61,-127.24 100.66,-123.28 105.54,-119.13 110.25,-114.78 114.78,-110.25 119.13,-105.54 123.28,-100.66 127.24,-95.61 130.98,-90.41 134.52,-85.06 137.83,-79.58 140.92,-73.96 143.79,-68.23 146.42,-62.38 148.81,-56.44 150.96,-50.40 152.87,-44.28 154.53,-38.09 155.94,-31.84 157.09,-25.53 157.99,-19.18 158.64,-12.81 159.03,-6.41 159.15,0.00"/>
    <edge id="right" from="right" to="top" length="250.0" shape="159.15,0.00 159.03,6.41 158.64,12.81 157.99,19.18 157.09,25.53 155.94,31.84 154.53,38.09 152.87,44.28 150.96,50.40 148.81,56.44 146.42,62.38 143.79,68.23 140.92,73.96 137.83,79.58 134.52,85.06 130.98,90.41 127.24,95.61 123.28,100.66 119.13,105.54 114.78,110.25 110.25,114.78 105.54,119.13 100.66,123.28 95.61,127.24 90.41,130.98 85.06,134.52 79.58,137.83 73.96,140.92 68.23,143.79 62.38,146.42 56.44,148.81 50.40,150.96 44.28,152.87 38.09,154.53 31.84,155.94 25.53,157.09 19.18,157.99 12.81,158.64 6.41,159.03 0.00,159.15"/>
    <edge id="top" from="top" to="left" length="250.0" shape="0.00,159.15 -6.41,159.03 -12.81,158.64 -19.18,157.99 -25.53,157.09 -31.84,155.94 -38.09,154.53 -44.28,152.87 -50.40,150.96 -56.44,148.81 -62.38,146.42 -68.23,143.79 -73.96,140.92 -79.58,137.83 -85.06,134.52 -90.41,130.98 -95.61,127.24 -100.66,123.28 -105.54,119.13 -110.25,114.78 -114.78,110.25 -119.13,105.54 -123.28,100.66 -127.24,95.61 -130.98,90.41 -134.52,85.06 -137.83,79.58 -140.92,73.96 -143.79,68.23 -146.42,62.38 -148.81,56.44 -150.96,50.40 -152.87,44.28 -154.53,38.09 -155.94,31.84 -157.09,25.53 -157.99,19.18 -158.64,12.81 -159.03,6.41 -159.15,0.00"/>
    <edge id="left" from="left" to="bottom" length="250.0" shape="-159.15,0.00 -159.03,-6.41 -158.64,-12.81 -157.99,-19.18 -157.09,-25.53 -155.94,-31.84 -154.53,-38.09 -152.87,-44.28 -150.96,-50.40 -148.81,-56.44 -146.42,-62.38 -143.79,-68.23 -140.92,-73.96 -137.83,-79.58 -134.52,-85.06 -130.98,-90.41 -127.24,-95.61 -123.28,-100.66 -119.13,-105.54 -114.78,-110.25 -110.25,-114.78 -105.54,-119.13 -100.66,-123.28 -95.61,-127.24 -90.41,-130.98 -85.06,-134.52 -79.58,-137.83 -73.96,-140.92 -68.23,-143.79 -62.38,-146.42 -56.44,-148.81 -50.40,-150.96 -44.28,-152.87 -38.09,-154.53 -31.84,-155.94 -25.53,-157.09 -19.18,-157.99 -12.81,-158.64 -6.41,-159.03 -0.00,-159.15"/>

</edges>