<?xml version="1.0" encoding="UTF-8"?>

<!-- generated on 2023-05-31 18:58:06 by Eclipse SUMO netedit Version 1.14.1
<configuration xmlns:xsi="http://www.w3.org/2001/XMLSchema-instance" xsi:noNamespaceSchemaLocation="http://sumo.dlr.de/xsd/netconvertConfiguration.xsd">

    <input>
        <sumo-net-file value="/Users/lakshman/Lakshman/Projects/thesis/sumo/Exp5/road_network/data7/quickstart.net.xml"/>
    </input>

    <output>
        <output-file value="/Users/lakshman/Lakshman/Projects/thesis/sumo/Exp5/road_network/data7/quickstart.net.xml"/>
    </output>

    <processing>
        <geometry.min-radius.fix.railways value="false"/>
        <geometry.max-grade.fix value="false"/>
        <offset.disable-normalization value="true"/>
        <lefthand value="false"/>
    </processing>

    <junctions>
        <no-turnarounds value="true"/>
        <junctions.corner-detail value="5"/>
        <junctions.limit-turn-speed value="5.5"/>
        <rectangular-lane-cut value="false"/>
    </junctions>

    <pedestrian>
        <walkingareas value="false"/>
    </pedestrian>

</configuration>
-->


<net version="1.9" junctionCornerDetail="5" limitTurnSpeed="5.50" xmlns:xsi="http://www.w3.org/2001/XMLSchema-instance" xsi:noNamespaceSchemaLocation="http://sumo.dlr.de/xsd/net_file.xsd">

  <nodes>
    <node id="n1" x="0" y="250.0" type="priority"/>
    <node id="n2" x="0" y="-250.0" type="priority"/>
</nodes>
  <edge id="e1" from="n1" to="n2" shape="150.00,0.00 148.15,23.47 142.66,46.35 133.65,68.10 121.35,88.17 106.07,106.07 88.17,121.35 68.10,133.65 46.35,142.66 23.47,148.15 0.00,150.00 -23.47,148.15 -46.35,142.66 -68.10,133.65 -88.17,121.35 -106.07,106.07 -121.35,88.17 -133.65,68.10 -142.66,46.35 -148.15,23.47 -150.00,0.00 -148.15,-23.47 -142.66,-46.35 -133.65,-68.10 -121.35,-88.17 -106.07,-106.07 -88.17,-121.35 -68.10,-133.65 -46.35,-142.66 -23.47,-148.15 -0.00,-150.00 23.47,-148.15 46.35,-142.66 68.10,-133.65 88.17,-121.35 106.07,-106.07 121.35,-88.17 133.65,-68.10 142.66,-46.35 148.15,-23.47"/>
  <edge id="e2" from="n2" to="n1"/>
   
</net>
