<?xml version="1.0" encoding="UTF-8"?>

<!-- generated on 2023-06-01 13:46:15 by Eclipse SUMO netedit Version 1.14.1
<configuration xmlns:xsi="http://www.w3.org/2001/XMLSchema-instance" xsi:noNamespaceSchemaLocation="http://sumo.dlr.de/xsd/netconvertConfiguration.xsd">

    <input>
        <node-files value="/Users/lakshman/Lakshman/Projects/thesis/sumo/Exp5/road_network/data7/nodes1.nod.xml"/>
        <edge-files value="/Users/lakshman/Lakshman/Projects/thesis/sumo/Exp5/road_network/data7/edges1.edg.xml"/>
    </input>

    <output>
        <output-file value="/Users/lakshman/Lakshman/Projects/thesis/sumo/Exp5/road_network/data7/test_4km.net.xml"/>
    </output>

    <processing>
        <offset.disable-normalization value="true"/>
    </processing>

    <junctions>
        <no-turnarounds value="true"/>
    </junctions>

</configuration>
-->

<net version="1.9" junctionCornerDetail="5" limitTurnSpeed="5.50" xmlns:xsi="http://www.w3.org/2001/XMLSchema-instance" xsi:noNamespaceSchemaLocation="http://sumo.dlr.de/xsd/net_file.xsd">

    <location netOffset="0.00,0.00" convBoundary="-636.62,-636.62,636.62,636.62" origBoundary="-636.62,-636.62,636.62,636.62" projParameter="!"/>

    <edge id=":bottom_0" function="internal">
        <lane id=":bottom_0_0" index="0" speed="13.89" length="0.10" shape="-0.03,-638.22 0.03,-638.22"/>
    </edge>
    <edge id=":left_0" function="internal">
        <lane id=":left_0_0" index="0" speed="13.89" length="0.10" shape="-638.22,0.03 -638.22,-0.03"/>
    </edge>
    <edge id=":right_0" function="internal">
        <lane id=":right_0_0" index="0" speed="13.89" length="0.10" shape="638.22,-0.03 638.22,0.03"/>
    </edge>
    <edge id=":top_0" function="internal">
        <lane id=":top_0_0" index="0" speed="13.89" length="0.10" shape="0.03,638.22 -0.03,638.22"/>
    </edge>

    <edge id="bottom" from="bottom" to="right" priority="-1" length="1000.00" shape="0.00,-636.62 25.63,-636.10 51.23,-634.56 76.74,-631.98 102.12,-628.38 127.34,-623.75 152.35,-618.12 177.12,-611.48 201.60,-603.86 225.75,-595.25 249.53,-585.68 272.91,-575.15 295.85,-563.70 318.31,-551.33 340.25,-538.06 361.64,-523.93 382.44,-508.94 402.63,-493.13 422.16,-476.52 441.00,-459.13 459.13,-441.00 476.52,-422.16 493.13,-402.63 508.94,-382.44 523.93,-361.64 538.06,-340.25 551.33,-318.31 563.70,-295.85 575.15,-272.91 585.68,-249.53 595.25,-225.75 603.86,-201.60 611.48,-177.12 618.12,-152.35 623.75,-127.34 628.38,-102.12 631.98,-76.74 634.56,-51.23 636.10,-25.63 636.62,0.00">
        <lane id="bottom_0" index="0" speed="13.89" length="1000.00" shape="0.03,-638.22 25.69,-637.70 51.36,-636.16 76.93,-633.57 102.38,-629.96 127.66,-625.32 152.73,-619.67 177.57,-613.02 202.11,-605.38 226.32,-596.75 250.16,-587.15 273.60,-576.60 296.59,-565.12 319.11,-552.72 341.11,-539.41 362.55,-525.25 383.40,-510.22 403.64,-494.37 423.22,-477.72 442.11,-460.28 460.28,-442.11 477.72,-423.22 494.37,-403.64 510.22,-383.40 525.25,-362.55 539.41,-341.11 552.72,-319.11 565.12,-296.59 576.60,-273.60 587.15,-250.16 596.75,-226.32 605.38,-202.11 613.02,-177.57 619.67,-152.73 625.32,-127.66 629.96,-102.38 633.57,-76.93 636.16,-51.36 637.70,-25.69 638.22,-0.03"/>
    </edge>
    <edge id="left" from="left" to="bottom" priority="-1" length="1000.00" shape="-636.62,0.00 -636.10,-25.63 -634.56,-51.23 -631.98,-76.74 -628.38,-102.12 -623.75,-127.34 -618.12,-152.35 -611.48,-177.12 -603.86,-201.60 -595.25,-225.75 -585.68,-249.53 -575.15,-272.91 -563.70,-295.85 -551.33,-318.31 -538.06,-340.25 -523.93,-361.64 -508.94,-382.44 -493.13,-402.63 -476.52,-422.16 -459.13,-441.00 -441.00,-459.13 -422.16,-476.52 -402.63,-493.13 -382.44,-508.94 -361.64,-523.93 -340.25,-538.06 -318.31,-551.33 -295.85,-563.70 -272.91,-575.15 -249.53,-585.68 -225.75,-595.25 -201.60,-603.86 -177.12,-611.48 -152.35,-618.12 -127.34,-623.75 -102.12,-628.38 -76.74,-631.98 -51.23,-634.56 -25.63,-636.10 0.00,-636.62">
        <lane id="left_0" index="0" speed="13.89" length="1000.00" shape="-638.22,-0.03 -637.70,-25.69 -636.16,-51.36 -633.57,-76.93 -629.96,-102.38 -625.32,-127.66 -619.67,-152.73 -613.02,-177.57 -605.38,-202.11 -596.75,-226.32 -587.15,-250.16 -576.60,-273.60 -565.12,-296.59 -552.72,-319.11 -539.41,-341.11 -525.25,-362.55 -510.22,-383.40 -494.37,-403.64 -477.72,-423.22 -460.28,-442.11 -442.11,-460.28 -423.22,-477.72 -403.64,-494.37 -383.40,-510.22 -362.55,-525.25 -341.11,-539.41 -319.11,-552.72 -296.59,-565.12 -273.60,-576.60 -250.16,-587.15 -226.32,-596.75 -202.11,-605.38 -177.57,-613.02 -152.73,-619.67 -127.66,-625.32 -102.38,-629.96 -76.93,-633.57 -51.36,-636.16 -25.69,-637.70 -0.03,-638.22"/>
    </edge>
    <edge id="right" from="right" to="top" priority="-1" length="1000.00" shape="636.62,0.00 636.10,25.63 634.56,51.23 631.98,76.74 628.38,102.12 623.75,127.34 618.12,152.35 611.48,177.12 603.86,201.60 595.25,225.75 585.68,249.53 575.15,272.91 563.70,295.85 551.33,318.31 538.06,340.25 523.93,361.64 508.94,382.44 493.13,402.63 476.52,422.16 459.13,441.00 441.00,459.13 422.16,476.52 402.63,493.13 382.44,508.94 361.64,523.93 340.25,538.06 318.31,551.33 295.85,563.70 272.91,575.15 249.53,585.68 225.75,595.25 201.60,603.86 177.12,611.48 152.35,618.12 127.34,623.75 102.12,628.38 76.74,631.98 51.23,634.56 25.63,636.10 0.00,636.62">
        <lane id="right_0" index="0" speed="13.89" length="1000.00" shape="638.22,0.03 637.70,25.69 636.16,51.36 633.57,76.93 629.96,102.38 625.32,127.66 619.67,152.73 613.02,177.57 605.38,202.11 596.75,226.32 587.15,250.16 576.60,273.60 565.12,296.59 552.72,319.11 539.41,341.11 525.25,362.55 510.22,383.40 494.37,403.64 477.72,423.22 460.28,442.11 442.11,460.28 423.22,477.72 403.64,494.37 383.40,510.22 362.55,525.25 341.11,539.41 319.11,552.72 296.59,565.12 273.60,576.60 250.16,587.15 226.32,596.75 202.11,605.38 177.57,613.02 152.73,619.67 127.66,625.32 102.38,629.96 76.93,633.57 51.36,636.16 25.69,637.70 0.03,638.22"/>
    </edge>
    <edge id="top" from="top" to="left" priority="-1" length="1000.00" shape="0.00,636.62 -25.63,636.10 -51.23,634.56 -76.74,631.98 -102.12,628.38 -127.34,623.75 -152.35,618.12 -177.12,611.48 -201.60,603.86 -225.75,595.25 -249.53,585.68 -272.91,575.15 -295.85,563.70 -318.31,551.33 -340.25,538.06 -361.64,523.93 -382.44,508.94 -402.63,493.13 -422.16,476.52 -441.00,459.13 -459.13,441.00 -476.52,422.16 -493.13,402.63 -508.94,382.44 -523.93,361.64 -538.06,340.25 -551.33,318.31 -563.70,295.85 -575.15,272.91 -585.68,249.53 -595.25,225.75 -603.86,201.60 -611.48,177.12 -618.12,152.35 -623.75,127.34 -628.38,102.12 -631.98,76.74 -634.56,51.23 -636.10,25.63 -636.62,0.00">
        <lane id="top_0" index="0" speed="13.89" length="1000.00" shape="-0.03,638.22 -25.69,637.70 -51.36,636.16 -76.93,633.57 -102.38,629.96 -127.66,625.32 -152.73,619.67 -177.57,613.02 -202.11,605.38 -226.32,596.75 -250.16,587.15 -273.60,576.60 -296.59,565.12 -319.11,552.72 -341.11,539.41 -362.55,525.25 -383.40,510.22 -403.64,494.37 -423.22,477.72 -442.11,460.28 -460.28,442.11 -477.72,423.22 -494.37,403.64 -510.22,383.40 -525.25,362.55 -539.41,341.11 -552.72,319.11 -565.12,296.59 -576.60,273.60 -587.15,250.16 -596.75,226.32 -605.38,202.11 -613.02,177.57 -619.67,152.73 -625.32,127.66 -629.96,102.38 -633.57,76.93 -636.16,51.36 -637.70,25.69 -638.22,0.03"/>
    </edge>

    <junction id="bottom" type="priority" x="0.00" y="-636.62" incLanes="left_0" intLanes=":bottom_0_0" shape="0.08,-636.62 0.14,-639.82 -0.14,-639.82 -0.08,-636.62">
        <request index="0" response="0" foes="0" cont="0"/>
    </junction>
    <junction id="left" type="priority" x="-636.62" y="0.00" incLanes="top_0" intLanes=":left_0_0" shape="-639.82,0.14 -636.62,0.08 -636.62,-0.08 -639.82,-0.14">
        <request index="0" response="0" foes="0" cont="0"/>
    </junction>
    <junction id="right" type="priority" x="636.62" y="0.00" incLanes="bottom_0" intLanes=":right_0_0" shape="639.82,-0.14 636.62,-0.08 636.62,0.08 639.82,0.14">
        <request index="0" response="0" foes="0" cont="0"/>
    </junction>
    <junction id="top" type="priority" x="0.00" y="636.62" incLanes="right_0" intLanes=":top_0_0" shape="0.14,639.82 0.08,636.62 -0.08,636.62 -0.14,639.82">
        <request index="0" response="0" foes="0" cont="0"/>
    </junction>

    <connection from="bottom" to="right" fromLane="0" toLane="0" via=":right_0_0" dir="s" state="M"/>
    <connection from="left" to="bottom" fromLane="0" toLane="0" via=":bottom_0_0" dir="s" state="M"/>
    <connection from="right" to="top" fromLane="0" toLane="0" via=":top_0_0" dir="s" state="M"/>
    <connection from="top" to="left" fromLane="0" toLane="0" via=":left_0_0" dir="s" state="M"/>

    <connection from=":bottom_0" to="bottom" fromLane="0" toLane="0" dir="s" state="M"/>
    <connection from=":left_0" to="left" fromLane="0" toLane="0" dir="s" state="M"/>
    <connection from=":right_0" to="right" fromLane="0" toLane="0" dir="s" state="M"/>
    <connection from=":top_0" to="top" fromLane="0" toLane="0" dir="s" state="M"/>

</net>
