<?xml version="1.0" encoding="UTF-8"?>

<!-- generated on 2023-05-31 23:53:19 by Eclipse SUMO netedit Version 1.14.1
<configuration xmlns:xsi="http://www.w3.org/2001/XMLSchema-instance" xsi:noNamespaceSchemaLocation="http://sumo.dlr.de/xsd/netconvertConfiguration.xsd">

    <input>
        <node-files value="/Users/lakshman/Lakshman/Projects/thesis/sumo/Exp5/road_network/data7/nodes.nod.xml"/>
        <edge-files value="/Users/lakshman/Lakshman/Projects/thesis/sumo/Exp5/road_network/data7/edges.edg.xml"/>
    </input>

    <output>
        <output-file value="/Users/lakshman/Lakshman/Projects/thesis/sumo/Exp5/road_network/data7/test1.net.xml"/>
    </output>

    <processing>
        <offset.disable-normalization value="true"/>
    </processing>

    <junctions>
        <no-turnarounds value="true"/>
    </junctions>

</configuration>
-->

<net version="1.9" junctionCornerDetail="5" limitTurnSpeed="5.50" xmlns:xsi="http://www.w3.org/2001/XMLSchema-instance" xsi:noNamespaceSchemaLocation="http://sumo.dlr.de/xsd/net_file.xsd">

    <location netOffset="0.00,0.00" convBoundary="-36.61,-36.61,36.61,36.61" origBoundary="-36.61,-36.61,36.61,36.61" projParameter="!"/>

    <edge id=":bottom_0" function="internal">
        <lane id=":bottom_0_0" index="0" speed="13.89" length="0.10" shape="-0.03,-38.21 0.03,-38.21"/>
    </edge>
    <edge id=":left_0" function="internal">
        <lane id=":left_0_0" index="0" speed="13.89" length="0.10" shape="-38.21,0.03 -38.21,-0.03"/>
    </edge>
    <edge id=":right_0" function="internal">
        <lane id=":right_0_0" index="0" speed="13.89" length="0.10" shape="38.21,-0.03 38.21,0.03"/>
    </edge>
    <edge id=":top_0" function="internal">
        <lane id=":top_0_0" index="0" speed="13.89" length="0.10" shape="0.03,38.21 -0.03,38.21"/>
    </edge>

    <edge id="bottom" from="bottom" to="right" priority="-1" length="57.50" shape="0.00,-36.61 1.47,-36.58 2.95,-36.49 4.41,-36.34 5.87,-36.13 7.32,-35.87 8.76,-35.54 10.18,-35.16 11.59,-34.72 12.98,-34.23 14.35,-33.68 15.69,-33.07 17.01,-32.41 18.30,-31.70 19.56,-30.94 20.79,-30.13 21.99,-29.26 23.15,-28.35 24.27,-27.40 25.36,-26.40 26.40,-25.36 27.40,-24.27 28.35,-23.15 29.26,-21.99 30.13,-20.79 30.94,-19.56 31.70,-18.30 32.41,-17.01 33.07,-15.69 33.68,-14.35 34.23,-12.98 34.72,-11.59 35.16,-10.18 35.54,-8.76 35.87,-7.32 36.13,-5.87 36.34,-4.41 36.49,-2.95 36.58,-1.47 36.61,0.00">
        <lane id="bottom_0" index="0" speed="13.89" length="57.50" shape="0.03,-38.21 1.54,-38.18 3.08,-38.08 4.61,-37.93 6.13,-37.71 7.64,-37.44 9.15,-37.09 10.63,-36.70 12.09,-36.24 13.54,-35.73 14.98,-35.15 16.38,-34.51 17.75,-33.83 19.10,-33.09 20.41,-32.29 21.70,-31.45 22.95,-30.54 24.16,-29.59 25.33,-28.60 26.47,-27.56 27.56,-26.47 28.60,-25.33 29.59,-24.16 30.54,-22.95 31.45,-21.70 32.29,-20.41 33.09,-19.10 33.83,-17.75 34.51,-16.38 35.15,-14.98 35.73,-13.54 36.24,-12.09 36.70,-10.63 37.09,-9.15 37.44,-7.64 37.71,-6.13 37.93,-4.61 38.08,-3.08 38.18,-1.54 38.21,-0.03"/>
    </edge>
    <edge id="left" from="left" to="bottom" priority="-1" length="57.50" shape="-36.61,0.00 -36.58,-1.47 -36.49,-2.95 -36.34,-4.41 -36.13,-5.87 -35.87,-7.32 -35.54,-8.76 -35.16,-10.18 -34.72,-11.59 -34.23,-12.98 -33.68,-14.35 -33.07,-15.69 -32.41,-17.01 -31.70,-18.30 -30.94,-19.56 -30.13,-20.79 -29.26,-21.99 -28.35,-23.15 -27.40,-24.27 -26.40,-25.36 -25.36,-26.40 -24.27,-27.40 -23.15,-28.35 -21.99,-29.26 -20.79,-30.13 -19.56,-30.94 -18.30,-31.70 -17.01,-32.41 -15.69,-33.07 -14.35,-33.68 -12.98,-34.23 -11.59,-34.72 -10.18,-35.16 -8.76,-35.54 -7.32,-35.87 -5.87,-36.13 -4.41,-36.34 -2.95,-36.49 -1.47,-36.58 0.00,-36.61">
        <lane id="left_0" index="0" speed="13.89" length="57.50" shape="-38.21,-0.03 -38.18,-1.54 -38.08,-3.08 -37.93,-4.61 -37.71,-6.13 -37.44,-7.64 -37.09,-9.15 -36.70,-10.63 -36.24,-12.09 -35.73,-13.54 -35.15,-14.98 -34.51,-16.38 -33.83,-17.75 -33.09,-19.10 -32.29,-20.41 -31.45,-21.70 -30.54,-22.95 -29.59,-24.16 -28.60,-25.33 -27.56,-26.47 -26.47,-27.56 -25.33,-28.60 -24.16,-29.59 -22.95,-30.54 -21.70,-31.45 -20.41,-32.29 -19.10,-33.09 -17.75,-33.83 -16.38,-34.51 -14.98,-35.15 -13.54,-35.73 -12.09,-36.24 -10.63,-36.70 -9.15,-37.09 -7.64,-37.44 -6.13,-37.71 -4.61,-37.93 -3.08,-38.08 -1.54,-38.18 -0.03,-38.21"/>
    </edge>
    <edge id="right" from="right" to="top" priority="-1" length="57.50" shape="36.61,0.00 36.58,1.47 36.49,2.95 36.34,4.41 36.13,5.87 35.87,7.32 35.54,8.76 35.16,10.18 34.72,11.59 34.23,12.98 33.68,14.35 33.07,15.69 32.41,17.01 31.70,18.30 30.94,19.56 30.13,20.79 29.26,21.99 28.35,23.15 27.40,24.27 26.40,25.36 25.36,26.40 24.27,27.40 23.15,28.35 21.99,29.26 20.79,30.13 19.56,30.94 18.30,31.70 17.01,32.41 15.69,33.07 14.35,33.68 12.98,34.23 11.59,34.72 10.18,35.16 8.76,35.54 7.32,35.87 5.87,36.13 4.41,36.34 2.95,36.49 1.47,36.58 0.00,36.61">
        <lane id="right_0" index="0" speed="13.89" length="57.50" shape="38.21,0.03 38.18,1.54 38.08,3.08 37.93,4.61 37.71,6.13 37.44,7.64 37.09,9.15 36.70,10.63 36.24,12.09 35.73,13.54 35.15,14.98 34.51,16.38 33.83,17.75 33.09,19.10 32.29,20.41 31.45,21.70 30.54,22.95 29.59,24.16 28.60,25.33 27.56,26.47 26.47,27.56 25.33,28.60 24.16,29.59 22.95,30.54 21.70,31.45 20.41,32.29 19.10,33.09 17.75,33.83 16.38,34.51 14.98,35.15 13.54,35.73 12.09,36.24 10.63,36.70 9.15,37.09 7.64,37.44 6.13,37.71 4.61,37.93 3.08,38.08 1.54,38.18 0.03,38.21"/>
    </edge>
    <edge id="top" from="top" to="left" priority="-1" length="57.50" shape="0.00,36.61 -1.47,36.58 -2.95,36.49 -4.41,36.34 -5.87,36.13 -7.32,35.87 -8.76,35.54 -10.18,35.16 -11.59,34.72 -12.98,34.23 -14.35,33.68 -15.69,33.07 -17.01,32.41 -18.30,31.70 -19.56,30.94 -20.79,30.13 -21.99,29.26 -23.15,28.35 -24.27,27.40 -25.36,26.40 -26.40,25.36 -27.40,24.27 -28.35,23.15 -29.26,21.99 -30.13,20.79 -30.94,19.56 -31.70,18.30 -32.41,17.01 -33.07,15.69 -33.68,14.35 -34.23,12.98 -34.72,11.59 -35.16,10.18 -35.54,8.76 -35.87,7.32 -36.13,5.87 -36.34,4.41 -36.49,2.95 -36.58,1.47 -36.61,0.00">
        <lane id="top_0" index="0" speed="13.89" length="57.50" shape="-0.03,38.21 -1.54,38.18 -3.08,38.08 -4.61,37.93 -6.13,37.71 -7.64,37.44 -9.15,37.09 -10.63,36.70 -12.09,36.24 -13.54,35.73 -14.98,35.15 -16.38,34.51 -17.75,33.83 -19.10,33.09 -20.41,32.29 -21.70,31.45 -22.95,30.54 -24.16,29.59 -25.33,28.60 -26.47,27.56 -27.56,26.47 -28.60,25.33 -29.59,24.16 -30.54,22.95 -31.45,21.70 -32.29,20.41 -33.09,19.10 -33.83,17.75 -34.51,16.38 -35.15,14.98 -35.73,13.54 -36.24,12.09 -36.70,10.63 -37.09,9.15 -37.44,7.64 -37.71,6.13 -37.93,4.61 -38.08,3.08 -38.18,1.54 -38.21,0.03"/>
    </edge>

    <junction id="bottom" type="priority" x="0.00" y="-36.61" incLanes="left_0" intLanes=":bottom_0_0" shape="0.08,-36.61 0.14,-39.81 -0.14,-39.81 -0.08,-36.61">
        <request index="0" response="0" foes="0" cont="0"/>
    </junction>
    <junction id="left" type="priority" x="-36.61" y="0.00" incLanes="top_0" intLanes=":left_0_0" shape="-39.81,0.14 -36.61,0.08 -36.61,-0.08 -39.81,-0.14">
        <request index="0" response="0" foes="0" cont="0"/>
    </junction>
    <junction id="right" type="priority" x="36.61" y="0.00" incLanes="bottom_0" intLanes=":right_0_0" shape="39.81,-0.14 36.61,-0.08 36.61,0.08 39.81,0.14">
        <request index="0" response="0" foes="0" cont="0"/>
    </junction>
    <junction id="top" type="priority" x="0.00" y="36.61" incLanes="right_0" intLanes=":top_0_0" shape="0.14,39.81 0.08,36.61 -0.08,36.61 -0.14,39.81">
        <request index="0" response="0" foes="0" cont="0"/>
    </junction>

    <connection from="bottom" to="right" fromLane="0" toLane="0" via=":right_0_0" dir="s" state="M"/>
    <connection from="left" to="bottom" fromLane="0" toLane="0" via=":bottom_0_0" dir="s" state="M"/>
    <connection from="right" to="top" fromLane="0" toLane="0" via=":top_0_0" dir="s" state="M"/>
    <connection from="top" to="left" fromLane="0" toLane="0" via=":left_0_0" dir="s" state="M"/>

    <connection from=":bottom_0" to="bottom" fromLane="0" toLane="0" dir="s" state="M"/>
    <connection from=":left_0" to="left" fromLane="0" toLane="0" dir="s" state="M"/>
    <connection from=":right_0" to="right" fromLane="0" toLane="0" dir="s" state="M"/>
    <connection from=":top_0" to="top" fromLane="0" toLane="0" dir="s" state="M"/>

</net>
