<?xml version="1.0" encoding="UTF-8"?>

<!-- generated on 2023-06-01 17:58:08 by Eclipse SUMO netedit Version 1.14.1
<configuration xmlns:xsi="http://www.w3.org/2001/XMLSchema-instance" xsi:noNamespaceSchemaLocation="http://sumo.dlr.de/xsd/netconvertConfiguration.xsd">

    <input>
        <sumo-net-file value="/Users/lakshman/Lakshman/Projects/thesis/sumo/Exp5/road_network/data7/test_1km.net.xml"/>
    </input>

    <output>
        <output-file value="/Users/lakshman/Lakshman/Projects/thesis/sumo/Exp5/road_network/data7/test_1km.net.xml"/>
    </output>

    <processing>
        <geometry.min-radius.fix.railways value="false"/>
        <geometry.max-grade.fix value="false"/>
        <offset.disable-normalization value="true"/>
        <lefthand value="false"/>
    </processing>

    <junctions>
        <no-turnarounds value="true"/>
        <junctions.corner-detail value="5"/>
        <junctions.limit-turn-speed value="5.5"/>
        <rectangular-lane-cut value="false"/>
    </junctions>

    <pedestrian>
        <walkingareas value="false"/>
    </pedestrian>

</configuration>
-->

<net version="1.9" junctionCornerDetail="5" limitTurnSpeed="5.50" xmlns:xsi="http://www.w3.org/2001/XMLSchema-instance" xsi:noNamespaceSchemaLocation="http://sumo.dlr.de/xsd/net_file.xsd">

    <location netOffset="0.00,0.00" convBoundary="-159.15,-159.15,159.15,159.15" origBoundary="-159.15,-159.15,159.15,159.15" projParameter="!"/>

    <edge id=":bottom_0" function="internal">
        <lane id=":bottom_0_0" index="0" speed="27.50" length="0.10" shape="-0.03,-160.75 0.03,-160.75"/>
    </edge>
    <edge id=":left_0" function="internal">
        <lane id=":left_0_0" index="0" speed="19.45" length="0.10" shape="-160.75,0.03 -160.75,-0.03"/>
    </edge>
    <edge id=":right_0" function="internal">
        <lane id=":right_0_0" index="0" speed="25.00" length="0.10" shape="160.75,-0.03 160.75,0.03"/>
    </edge>
    <edge id=":top_0" function="internal">
        <lane id=":top_0_0" index="0" speed="16.95" length="0.10" shape="0.03,160.75 -0.03,160.75"/>
    </edge>

    <edge id="bottom" from="bottom" to="right" priority="-1" length="250.00" shape="0.00,-159.15 6.41,-159.03 12.81,-158.64 19.18,-157.99 25.53,-157.09 31.84,-155.94 38.09,-154.53 44.28,-152.87 50.40,-150.96 56.44,-148.81 62.38,-146.42 68.23,-143.79 73.96,-140.92 79.58,-137.83 85.06,-134.52 90.41,-130.98 95.61,-127.24 100.66,-123.28 105.54,-119.13 110.25,-114.78 114.78,-110.25 119.13,-105.54 123.28,-100.66 127.24,-95.61 130.98,-90.41 134.52,-85.06 137.83,-79.58 140.92,-73.96 143.79,-68.23 146.42,-62.38 148.81,-56.44 150.96,-50.40 152.87,-44.28 154.53,-38.09 155.94,-31.84 157.09,-25.53 157.99,-19.18 158.64,-12.81 159.03,-6.41 159.15,0.00">
        <lane id="bottom_0" index="0" speed="30.00" length="250.00" shape="0.03,-160.75 6.47,-160.63 12.94,-160.24 19.37,-159.58 25.79,-158.67 32.16,-157.51 38.47,-156.08 44.73,-154.41 50.91,-152.48 57.01,-150.31 63.01,-147.89 68.92,-145.24 74.70,-142.34 80.38,-139.22 85.92,-135.87 91.32,-132.30 96.57,-128.52 101.67,-124.52 106.60,-120.33 111.36,-115.93 115.93,-111.36 120.33,-106.60 124.52,-101.67 128.52,-96.57 132.30,-91.32 135.87,-85.92 139.22,-80.38 142.34,-74.70 145.24,-68.92 147.89,-63.01 150.31,-57.01 152.48,-50.91 154.41,-44.73 156.08,-38.47 157.51,-32.16 158.67,-25.79 159.58,-19.37 160.24,-12.94 160.63,-6.47 160.75,-0.03"/>
    </edge>
    <edge id="left" from="left" to="bottom" priority="-1" length="250.00" shape="-159.15,0.00 -159.03,-6.41 -158.64,-12.81 -157.99,-19.18 -157.09,-25.53 -155.94,-31.84 -154.53,-38.09 -152.87,-44.28 -150.96,-50.40 -148.81,-56.44 -146.42,-62.38 -143.79,-68.23 -140.92,-73.96 -137.83,-79.58 -134.52,-85.06 -130.98,-90.41 -127.24,-95.61 -123.28,-100.66 -119.13,-105.54 -114.78,-110.25 -110.25,-114.78 -105.54,-119.13 -100.66,-123.28 -95.61,-127.24 -90.41,-130.98 -85.06,-134.52 -79.58,-137.83 -73.96,-140.92 -68.23,-143.79 -62.38,-146.42 -56.44,-148.81 -50.40,-150.96 -44.28,-152.87 -38.09,-154.53 -31.84,-155.94 -25.53,-157.09 -19.18,-157.99 -12.81,-158.64 -6.41,-159.03 0.00,-159.15">
        <lane id="left_0" index="0" speed="25.00" length="250.00" shape="-160.75,-0.03 -160.63,-6.47 -160.24,-12.94 -159.58,-19.37 -158.67,-25.79 -157.51,-32.16 -156.08,-38.47 -154.41,-44.73 -152.48,-50.91 -150.31,-57.01 -147.89,-63.01 -145.24,-68.92 -142.34,-74.70 -139.22,-80.38 -135.87,-85.92 -132.30,-91.32 -128.52,-96.57 -124.52,-101.67 -120.33,-106.60 -115.93,-111.36 -111.36,-115.93 -106.60,-120.33 -101.67,-124.52 -96.57,-128.52 -91.32,-132.30 -85.92,-135.87 -80.38,-139.22 -74.70,-142.34 -68.92,-145.24 -63.01,-147.89 -57.01,-150.31 -50.91,-152.48 -44.73,-154.41 -38.47,-156.08 -32.16,-157.51 -25.79,-158.67 -19.37,-159.58 -12.94,-160.24 -6.47,-160.63 -0.03,-160.75"/>
    </edge>
    <edge id="right" from="right" to="top" priority="-1" length="250.00" shape="159.15,0.00 159.03,6.41 158.64,12.81 157.99,19.18 157.09,25.53 155.94,31.84 154.53,38.09 152.87,44.28 150.96,50.40 148.81,56.44 146.42,62.38 143.79,68.23 140.92,73.96 137.83,79.58 134.52,85.06 130.98,90.41 127.24,95.61 123.28,100.66 119.13,105.54 114.78,110.25 110.25,114.78 105.54,119.13 100.66,123.28 95.61,127.24 90.41,130.98 85.06,134.52 79.58,137.83 73.96,140.92 68.23,143.79 62.38,146.42 56.44,148.81 50.40,150.96 44.28,152.87 38.09,154.53 31.84,155.94 25.53,157.09 19.18,157.99 12.81,158.64 6.41,159.03 0.00,159.15">
        <lane id="right_0" index="0" speed="20.00" length="250.00" shape="160.75,0.03 160.63,6.47 160.24,12.94 159.58,19.37 158.67,25.79 157.51,32.16 156.08,38.47 154.41,44.73 152.48,50.91 150.31,57.01 147.89,63.01 145.24,68.92 142.34,74.70 139.22,80.38 135.87,85.92 132.30,91.32 128.52,96.57 124.52,101.67 120.33,106.60 115.93,111.36 111.36,115.93 106.60,120.33 101.67,124.52 96.57,128.52 91.32,132.30 85.92,135.87 80.38,139.22 74.70,142.34 68.92,145.24 63.01,147.89 57.01,150.31 50.91,152.48 44.73,154.41 38.47,156.08 32.16,157.51 25.79,158.67 19.37,159.58 12.94,160.24 6.47,160.63 0.03,160.75"/>
    </edge>
    <edge id="top" from="top" to="left" priority="-1" length="250.00" shape="0.00,159.15 -6.41,159.03 -12.81,158.64 -19.18,157.99 -25.53,157.09 -31.84,155.94 -38.09,154.53 -44.28,152.87 -50.40,150.96 -56.44,148.81 -62.38,146.42 -68.23,143.79 -73.96,140.92 -79.58,137.83 -85.06,134.52 -90.41,130.98 -95.61,127.24 -100.66,123.28 -105.54,119.13 -110.25,114.78 -114.78,110.25 -119.13,105.54 -123.28,100.66 -127.24,95.61 -130.98,90.41 -134.52,85.06 -137.83,79.58 -140.92,73.96 -143.79,68.23 -146.42,62.38 -148.81,56.44 -150.96,50.40 -152.87,44.28 -154.53,38.09 -155.94,31.84 -157.09,25.53 -157.99,19.18 -158.64,12.81 -159.03,6.41 -159.15,0.00">
        <lane id="top_0" index="0" speed="13.89" length="250.00" shape="-0.03,160.75 -6.47,160.63 -12.94,160.24 -19.37,159.58 -25.79,158.67 -32.16,157.51 -38.47,156.08 -44.73,154.41 -50.91,152.48 -57.01,150.31 -63.01,147.89 -68.92,145.24 -74.70,142.34 -80.38,139.22 -85.92,135.87 -91.32,132.30 -96.57,128.52 -101.67,124.52 -106.60,120.33 -111.36,115.93 -115.93,111.36 -120.33,106.60 -124.52,101.67 -128.52,96.57 -132.30,91.32 -135.87,85.92 -139.22,80.38 -142.34,74.70 -145.24,68.92 -147.89,63.01 -150.31,57.01 -152.48,50.91 -154.41,44.73 -156.08,38.47 -157.51,32.16 -158.67,25.79 -159.58,19.37 -160.24,12.94 -160.63,6.47 -160.75,0.03"/>
    </edge>

    <junction id="bottom" type="priority" x="0.00" y="-159.15" incLanes="left_0" intLanes=":bottom_0_0" shape="0.09,-159.15 0.14,-162.35 -0.14,-162.35 -0.09,-159.15">
        <request index="0" response="0" foes="0" cont="0"/>
    </junction>
    <junction id="left" type="priority" x="-159.15" y="0.00" incLanes="top_0" intLanes=":left_0_0" shape="-162.35,0.14 -159.15,0.09 -159.15,-0.09 -162.35,-0.14">
        <request index="0" response="0" foes="0" cont="0"/>
    </junction>
    <junction id="right" type="priority" x="159.15" y="0.00" incLanes="bottom_0" intLanes=":right_0_0" shape="162.35,-0.14 159.15,-0.09 159.15,0.09 162.35,0.14">
        <request index="0" response="0" foes="0" cont="0"/>
    </junction>
    <junction id="top" type="priority" x="0.00" y="159.15" incLanes="right_0" intLanes=":top_0_0" shape="0.14,162.35 0.09,159.15 -0.09,159.15 -0.14,162.35">
        <request index="0" response="0" foes="0" cont="0"/>
    </junction>

    <connection from="bottom" to="right" fromLane="0" toLane="0" via=":right_0_0" dir="s" state="M"/>
    <connection from="left" to="bottom" fromLane="0" toLane="0" via=":bottom_0_0" dir="s" state="M"/>
    <connection from="right" to="top" fromLane="0" toLane="0" via=":top_0_0" dir="s" state="M"/>
    <connection from="top" to="left" fromLane="0" toLane="0" via=":left_0_0" dir="s" state="M"/>

    <connection from=":bottom_0" to="bottom" fromLane="0" toLane="0" dir="s" state="M"/>
    <connection from=":left_0" to="left" fromLane="0" toLane="0" dir="s" state="M"/>
    <connection from=":right_0" to="right" fromLane="0" toLane="0" dir="s" state="M"/>
    <connection from=":top_0" to="top" fromLane="0" toLane="0" dir="s" state="M"/>

</net>
