<?xml version="1.0" encoding="UTF-8"?>

<!-- generated on 2023-05-31 19:26:08.285955 by randomTrips.py UNKNOWN
<configuration>
    <begin value="1"/>
    <end value="800"/>
    <net-file value="quickstart.net.xml"/>
    <period value="7.0"/>
    <route-file value="route1.xml"/>
    <trip-attributes value="departLane=&quot;best&quot; departSpeed=&quot;max&quot; departPos=&quot;random&quot;"/>
    <vehicle-class value="passenger"/>
</configuration>
-->

<routes xmlns:xsi="http://www.w3.org/2001/XMLSchema-instance" xsi:noNamespaceSchemaLocation="http://sumo.dlr.de/xsd/routes_file.xsd">
    <vType id="passenger" vClass="passenger"/>
    <trip id="0" depart="1.00" from="E13" to="-E0" departLane="best" departSpeed="max" departPos="random" type="passenger"/>
    <trip id="1" depart="8.00" from="-E18" to="-E17" departLane="best" departSpeed="max" departPos="random" type="passenger"/>
    <trip id="2" depart="15.00" from="E17" to="E15" departLane="best" departSpeed="max" departPos="random" type="passenger"/>
    <trip id="3" depart="22.00" from="E6" to="-E11" departLane="best" departSpeed="max" departPos="random" type="passenger"/>
    <trip id="4" depart="29.00" from="-E7" to="-E1" departLane="best" departSpeed="max" departPos="random" type="passenger"/>
    <trip id="5" depart="36.00" from="-E16" to="E0" departLane="best" departSpeed="max" departPos="random" type="passenger"/>
    <trip id="6" depart="43.00" from="-E0" to="-E16" departLane="best" departSpeed="max" departPos="random" type="passenger"/>
    <trip id="7" depart="50.00" from="E13" to="E1" departLane="best" departSpeed="max" departPos="random" type="passenger"/>
    <trip id="8" depart="57.00" from="-E16" to="E11" departLane="best" departSpeed="max" departPos="random" type="passenger"/>
    <trip id="9" depart="64.00" from="E3" to="-E0" departLane="best" departSpeed="max" departPos="random" type="passenger"/>
    <trip id="10" depart="71.00" from="E3" to="E16" departLane="best" departSpeed="max" departPos="random" type="passenger"/>
    <trip id="11" depart="78.00" from="-E4" to="-E13" departLane="best" departSpeed="max" departPos="random" type="passenger"/>
    <trip id="12" depart="85.00" from="E8" to="-E4" departLane="best" departSpeed="max" departPos="random" type="passenger"/>
    <trip id="13" depart="92.00" from="-E11" to="-E11" departLane="best" departSpeed="max" departPos="random" type="passenger"/>
    <trip id="14" depart="99.00" from="E4" to="E11" departLane="best" departSpeed="max" departPos="random" type="passenger"/>
    <trip id="15" depart="106.00" from="E3" to="E17" departLane="best" departSpeed="max" departPos="random" type="passenger"/>
    <trip id="16" depart="113.00" from="E1" to="E9" departLane="best" departSpeed="max" departPos="random" type="passenger"/>
    <trip id="17" depart="120.00" from="-E5" to="E1" departLane="best" departSpeed="max" departPos="random" type="passenger"/>
    <trip id="18" depart="127.00" from="E3" to="E12" departLane="best" departSpeed="max" departPos="random" type="passenger"/>
    <trip id="19" depart="134.00" from="E5" to="E10" departLane="best" departSpeed="max" departPos="random" type="passenger"/>
    <trip id="20" depart="141.00" from="E16" to="-E1" departLane="best" departSpeed="max" departPos="random" type="passenger"/>
    <trip id="21" depart="148.00" from="-E17" to="-E2" departLane="best" departSpeed="max" departPos="random" type="passenger"/>
    <trip id="22" depart="155.00" from="-E10" to="-E17" departLane="best" departSpeed="max" departPos="random" type="passenger"/>
    <trip id="23" depart="162.00" from="-E11" to="-E2" departLane="best" departSpeed="max" departPos="random" type="passenger"/>
    <trip id="24" depart="169.00" from="E12" to="-E5" departLane="best" departSpeed="max" departPos="random" type="passenger"/>
    <trip id="25" depart="176.00" from="-E5" to="-E16" departLane="best" departSpeed="max" departPos="random" type="passenger"/>
    <trip id="26" depart="183.00" from="-E18" to="E7" departLane="best" departSpeed="max" departPos="random" type="passenger"/>
    <trip id="27" depart="190.00" from="E13" to="E11" departLane="best" departSpeed="max" departPos="random" type="passenger"/>
    <trip id="28" depart="197.00" from="-E15" to="E17" departLane="best" departSpeed="max" departPos="random" type="passenger"/>
    <trip id="29" depart="204.00" from="-E13" to="-E5" departLane="best" departSpeed="max" departPos="random" type="passenger"/>
    <trip id="30" depart="211.00" from="E9" to="E13" departLane="best" departSpeed="max" departPos="random" type="passenger"/>
    <trip id="31" depart="218.00" from="E10" to="E15" departLane="best" departSpeed="max" departPos="random" type="passenger"/>
    <trip id="32" depart="225.00" from="E4" to="E18" departLane="best" departSpeed="max" departPos="random" type="passenger"/>
    <trip id="33" depart="232.00" from="-E17" to="-E1" departLane="best" departSpeed="max" departPos="random" type="passenger"/>
    <trip id="34" depart="239.00" from="-E3" to="-E18" departLane="best" departSpeed="max" departPos="random" type="passenger"/>
    <trip id="35" depart="246.00" from="-E16" to="E7" departLane="best" departSpeed="max" departPos="random" type="passenger"/>
    <trip id="36" depart="253.00" from="E5" to="-E3" departLane="best" departSpeed="max" departPos="random" type="passenger"/>
    <trip id="37" depart="260.00" from="E13" to="-E6" departLane="best" departSpeed="max" departPos="random" type="passenger"/>
    <trip id="38" depart="267.00" from="E6" to="-E8" departLane="best" departSpeed="max" departPos="random" type="passenger"/>
    <trip id="39" depart="274.00" from="-E18" to="-E17" departLane="best" departSpeed="max" departPos="random" type="passenger"/>
    <trip id="40" depart="281.00" from="E10" to="-E18" departLane="best" departSpeed="max" departPos="random" type="passenger"/>
    <trip id="41" depart="288.00" from="E11" to="E6" departLane="best" departSpeed="max" departPos="random" type="passenger"/>
    <trip id="42" depart="295.00" from="-E6" to="-E16" departLane="best" departSpeed="max" departPos="random" type="passenger"/>
    <trip id="43" depart="302.00" from="E9" to="E0" departLane="best" departSpeed="max" departPos="random" type="passenger"/>
    <trip id="44" depart="309.00" from="-E11" to="-E1" departLane="best" departSpeed="max" departPos="random" type="passenger"/>
    <trip id="45" depart="316.00" from="-E11" to="E12" departLane="best" departSpeed="max" departPos="random" type="passenger"/>
    <trip id="46" depart="323.00" from="E2" to="-E7" departLane="best" departSpeed="max" departPos="random" type="passenger"/>
    <trip id="47" depart="330.00" from="-E10" to="-E5" departLane="best" departSpeed="max" departPos="random" type="passenger"/>
    <trip id="48" depart="337.00" from="E9" to="E1" departLane="best" departSpeed="max" departPos="random" type="passenger"/>
    <trip id="49" depart="344.00" from="E8" to="E4" departLane="best" departSpeed="max" departPos="random" type="passenger"/>
    <trip id="50" depart="351.00" from="-E0" to="E16" departLane="best" departSpeed="max" departPos="random" type="passenger"/>
    <trip id="51" depart="358.00" from="E15" to="E1" departLane="best" departSpeed="max" departPos="random" type="passenger"/>
    <trip id="52" depart="365.00" from="-E18" to="E13" departLane="best" departSpeed="max" departPos="random" type="passenger"/>
    <trip id="53" depart="372.00" from="-E12" to="-E7" departLane="best" departSpeed="max" departPos="random" type="passenger"/>
    <trip id="54" depart="379.00" from="-E8" to="E8" departLane="best" departSpeed="max" departPos="random" type="passenger"/>
    <trip id="55" depart="386.00" from="E5" to="-E18" departLane="best" departSpeed="max" departPos="random" type="passenger"/>
    <trip id="56" depart="393.00" from="E0" to="-E15" departLane="best" departSpeed="max" departPos="random" type="passenger"/>
    <trip id="57" depart="400.00" from="E6" to="E5" departLane="best" departSpeed="max" departPos="random" type="passenger"/>
    <trip id="58" depart="407.00" from="-E2" to="E13" departLane="best" departSpeed="max" departPos="random" type="passenger"/>
    <trip id="59" depart="414.00" from="E11" to="-E13" departLane="best" departSpeed="max" departPos="random" type="passenger"/>
    <trip id="60" depart="421.00" from="E18" to="E1" departLane="best" departSpeed="max" departPos="random" type="passenger"/>
    <trip id="61" depart="428.00" from="E2" to="E1" departLane="best" departSpeed="max" departPos="random" type="passenger"/>
    <trip id="62" depart="435.00" from="-E0" to="-E3" departLane="best" departSpeed="max" departPos="random" type="passenger"/>
    <trip id="63" depart="442.00" from="-E0" to="E7" departLane="best" departSpeed="max" departPos="random" type="passenger"/>
    <trip id="64" depart="449.00" from="E5" to="E3" departLane="best" departSpeed="max" departPos="random" type="passenger"/>
    <trip id="65" depart="456.00" from="-E3" to="-E10" departLane="best" departSpeed="max" departPos="random" type="passenger"/>
    <trip id="66" depart="463.00" from="E5" to="E8" departLane="best" departSpeed="max" departPos="random" type="passenger"/>
    <trip id="67" depart="470.00" from="-E11" to="-E9" departLane="best" departSpeed="max" departPos="random" type="passenger"/>
    <trip id="68" depart="477.00" from="-E10" to="E18" departLane="best" departSpeed="max" departPos="random" type="passenger"/>
    <trip id="69" depart="484.00" from="E18" to="-E12" departLane="best" departSpeed="max" departPos="random" type="passenger"/>
    <trip id="70" depart="491.00" from="-E9" to="E1" departLane="best" departSpeed="max" departPos="random" type="passenger"/>
    <trip id="71" depart="498.00" from="-E18" to="E5" departLane="best" departSpeed="max" departPos="random" type="passenger"/>
    <trip id="72" depart="505.00" from="-E7" to="-E16" departLane="best" departSpeed="max" departPos="random" type="passenger"/>
    <trip id="73" depart="512.00" from="E1" to="E17" departLane="best" departSpeed="max" departPos="random" type="passenger"/>
    <trip id="74" depart="519.00" from="-E16" to="-E3" departLane="best" departSpeed="max" departPos="random" type="passenger"/>
    <trip id="75" depart="526.00" from="E9" to="E13" departLane="best" departSpeed="max" departPos="random" type="passenger"/>
    <trip id="76" depart="533.00" from="-E7" to="E0" departLane="best" departSpeed="max" departPos="random" type="passenger"/>
    <trip id="77" depart="540.00" from="-E12" to="-E17" departLane="best" departSpeed="max" departPos="random" type="passenger"/>
    <trip id="78" depart="547.00" from="-E4" to="E11" departLane="best" departSpeed="max" departPos="random" type="passenger"/>
    <trip id="79" depart="554.00" from="-E17" to="-E16" departLane="best" departSpeed="max" departPos="random" type="passenger"/>
    <trip id="80" depart="561.00" from="-E10" to="E12" departLane="best" departSpeed="max" departPos="random" type="passenger"/>
    <trip id="81" depart="568.00" from="-E17" to="E6" departLane="best" departSpeed="max" departPos="random" type="passenger"/>
    <trip id="82" depart="575.00" from="E4" to="-E10" departLane="best" departSpeed="max" departPos="random" type="passenger"/>
    <trip id="83" depart="582.00" from="-E17" to="E15" departLane="best" departSpeed="max" departPos="random" type="passenger"/>
    <trip id="84" depart="589.00" from="-E16" to="-E12" departLane="best" departSpeed="max" departPos="random" type="passenger"/>
    <trip id="85" depart="596.00" from="E7" to="E10" departLane="best" departSpeed="max" departPos="random" type="passenger"/>
    <trip id="86" depart="603.00" from="-E9" to="E2" departLane="best" departSpeed="max" departPos="random" type="passenger"/>
    <trip id="87" depart="610.00" from="E3" to="-E15" departLane="best" departSpeed="max" departPos="random" type="passenger"/>
    <trip id="88" depart="617.00" from="-E11" to="-E7" departLane="best" departSpeed="max" departPos="random" type="passenger"/>
    <trip id="89" depart="624.00" from="-E7" to="-E8" departLane="best" departSpeed="max" departPos="random" type="passenger"/>
    <trip id="90" depart="631.00" from="E17" to="E15" departLane="best" departSpeed="max" departPos="random" type="passenger"/>
    <trip id="91" depart="638.00" from="E9" to="-E11" departLane="best" departSpeed="max" departPos="random" type="passenger"/>
    <trip id="92" depart="645.00" from="-E6" to="-E4" departLane="best" departSpeed="max" departPos="random" type="passenger"/>
    <trip id="93" depart="652.00" from="E5" to="-E17" departLane="best" departSpeed="max" departPos="random" type="passenger"/>
    <trip id="94" depart="659.00" from="-E15" to="-E8" departLane="best" departSpeed="max" departPos="random" type="passenger"/>
    <trip id="95" depart="666.00" from="-E7" to="-E2" departLane="best" departSpeed="max" departPos="random" type="passenger"/>
    <trip id="96" depart="673.00" from="-E17" to="E7" departLane="best" departSpeed="max" departPos="random" type="passenger"/>
    <trip id="97" depart="680.00" from="-E7" to="E5" departLane="best" departSpeed="max" departPos="random" type="passenger"/>
    <trip id="98" depart="687.00" from="E1" to="-E1" departLane="best" departSpeed="max" departPos="random" type="passenger"/>
    <trip id="99" depart="694.00" from="E9" to="E4" departLane="best" departSpeed="max" departPos="random" type="passenger"/>
    <trip id="100" depart="701.00" from="E8" to="E7" departLane="best" departSpeed="max" departPos="random" type="passenger"/>
    <trip id="101" depart="708.00" from="E4" to="-E13" departLane="best" departSpeed="max" departPos="random" type="passenger"/>
    <trip id="102" depart="715.00" from="-E9" to="-E16" departLane="best" departSpeed="max" departPos="random" type="passenger"/>
    <trip id="103" depart="722.00" from="-E6" to="-E10" departLane="best" departSpeed="max" departPos="random" type="passenger"/>
    <trip id="104" depart="729.00" from="-E5" to="E9" departLane="best" departSpeed="max" departPos="random" type="passenger"/>
    <trip id="105" depart="736.00" from="-E18" to="E2" departLane="best" departSpeed="max" departPos="random" type="passenger"/>
    <trip id="106" depart="743.00" from="-E8" to="-E7" departLane="best" departSpeed="max" departPos="random" type="passenger"/>
    <trip id="107" depart="750.00" from="E8" to="E9" departLane="best" departSpeed="max" departPos="random" type="passenger"/>
    <trip id="108" depart="757.00" from="E10" to="E16" departLane="best" departSpeed="max" departPos="random" type="passenger"/>
    <trip id="109" depart="764.00" from="-E13" to="-E2" departLane="best" departSpeed="max" departPos="random" type="passenger"/>
    <trip id="110" depart="771.00" from="E8" to="E10" departLane="best" departSpeed="max" departPos="random" type="passenger"/>
    <trip id="111" depart="778.00" from="E1" to="E17" departLane="best" departSpeed="max" departPos="random" type="passenger"/>
    <trip id="112" depart="785.00" from="-E10" to="E11" departLane="best" departSpeed="max" departPos="random" type="passenger"/>
    <trip id="113" depart="792.00" from="E0" to="E4" departLane="best" departSpeed="max" departPos="random" type="passenger"/>
    <trip id="114" depart="799.00" from="-E13" to="E8" departLane="best" departSpeed="max" departPos="random" type="passenger"/>
</routes>
