<?xml version="1.0" encoding="UTF-8"?>

<!-- generated on 2023-01-26 11:41:58.035455 by osmWebWizard.py v1_15_0+1993-e485a7d220d
<configuration>
    <allow-fringe.min-length value="1000.0"/>
    <begin value="0"/>
    <end value="3600"/>
    <fringe-factor value="5"/>
    <fringe-start-attributes value="departSpeed=&quot;max&quot;"/>
    <insertion-density value="12.0"/>
    <lanes value="True"/>
    <min-distance.fringe value="10.0"/>
    <min-distance value="300.0"/>
    <net-file value="/Users/lakshman/Lakshman/apps/sumo/tools/2023-01-26-11-41-39/osm.net.xml.gz"/>
    <remove-loops value="True"/>
    <route-file value="/Users/lakshman/Lakshman/apps/sumo/tools/2023-01-26-11-41-39/osm.passenger.rou.xml"/>
    <trip-attributes value="departLane=&quot;best&quot;"/>
    <output-trip-file value="/Users/lakshman/Lakshman/apps/sumo/tools/2023-01-26-11-41-39/osm.passenger.trips.xml"/>
    <prefix value="veh"/>
    <validate value="True"/>
    <vehicle-class value="passenger"/>
</configuration>
-->

<!-- generated on 2023-01-26 11:41:57 by Eclipse SUMO duarouter Version 1.14.1
<configuration xmlns:xsi="http://www.w3.org/2001/XMLSchema-instance" xsi:noNamespaceSchemaLocation="http://sumo.dlr.de/xsd/duarouterConfiguration.xsd">

    <input>
        <net-file value="/Users/lakshman/Lakshman/apps/sumo/tools/2023-01-26-11-41-39/osm.net.xml.gz"/>
        <route-files value="/Users/lakshman/Lakshman/apps/sumo/tools/2023-01-26-11-41-39/osm.passenger.trips.xml"/>
    </input>

    <output>
        <output-file value="/Users/lakshman/Lakshman/apps/sumo/tools/2023-01-26-11-41-39/osm.passenger.trips.xml.tmp"/>
        <alternatives-output value="NUL"/>
        <write-trips value="true"/>
    </output>

    <processing>
        <remove-loops value="true"/>
    </processing>

    <time>
        <begin value="0"/>
        <end value="3600"/>
    </time>

    <report>
        <no-warnings value="true"/>
        <ignore-errors value="true"/>
        <no-step-log value="true"/>
    </report>

</configuration>
-->

<routes xmlns:xsi="http://www.w3.org/2001/XMLSchema-instance" xsi:noNamespaceSchemaLocation="http://sumo.dlr.de/xsd/routes_file.xsd">
    <vType id="veh_passenger" vClass="passenger"/>
    <route id="route_3" edges="105683261#9 18996092#20"/>
    <route id="route_4" edges="435372400#1 -120133669#3"/>
    <!-- <trip id="veh0" type="veh_passenger" depart="0.00" departLane="best" from="18988885#6" to="-1021773039#0"/> -->
    <trip id="veh1" type="veh_passenger" depart="3.80" departLane="best" departSpeed="max" from="-18998058" to="-18996085#13"/>
    <trip id="veh2" type="veh_passenger" depart="7.60" departLane="best" from="18996085#0" to="18994013#16"/>
    <trip id="veh3" type="veh_passenger" depart="11.39" departLane="best" from="435372400#1" to="-120133669#3"/>
    <trip id="veh4" type="veh_passenger" depart="15.19" departLane="best" from="-692262438#0" to="-1054667346#0"/>
    <trip id="veh5" type="veh_passenger" depart="18.99" departLane="best" from="18996085#0" to="105683268#4"/>
    <trip id="veh6" type="veh_passenger" depart="22.79" departLane="best" from="-105683264#1" to="-18994013#0"/>
    <trip id="veh7" type="veh_passenger" depart="26.59" departLane="best" from="-18989277#9" to="120133669#18"/>
    <trip id="veh8" type="veh_passenger" depart="30.38" departLane="best" from="-18996085#11" to="18988882#3"/>
    <trip id="veh9" type="veh_passenger" depart="34.18" departLane="best" departSpeed="max" from="393520174#0" to="101471666#4"/>
    <trip id="veh10" type="veh_passenger" depart="37.98" departLane="best" from="393475372#1" to="18995037#2"/>
    <trip id="veh11" type="veh_passenger" depart="41.78" departLane="best" from="-399319656#2" to="-18991710#0"/>
    <trip id="veh12" type="veh_passenger" depart="45.58" departLane="best" from="769488623#29" to="-399319655#1"/>
    <trip id="veh13" type="veh_passenger" depart="49.37" departLane="best" from="136051675#2" to="-120134330#9"/>
    <trip id="veh14" type="veh_passenger" depart="53.17" departLane="best" from="-399319653#2" to="18989277#12"/>
    <trip id="veh15" type="veh_passenger" depart="56.97" departLane="best" from="393475372#4" to="18996092#20"/>
    <trip id="veh16" type="veh_passenger" depart="60.77" departLane="best" from="105683261#4" to="79838553#1"/>
    <trip id="veh17" type="veh_passenger" depart="64.57" departLane="best" departSpeed="max" from="-518381591#3" to="120134330#1"/>
    <trip id="veh18" type="veh_passenger" depart="68.36" departLane="best" from="393520174#20" to="-18990245#6"/>
    <trip id="veh19" type="veh_passenger" depart="72.16" departLane="best" from="-18993982#12" to="-105683264#4"/>
    <trip id="veh20" type="veh_passenger" depart="75.96" departLane="best" from="-18996085#8" to="-393520174#0"/>
    <trip id="veh21" type="veh_passenger" depart="79.76" departLane="best" from="-120134330#10" to="18996092#12"/>
    <trip id="veh22" type="veh_passenger" depart="83.56" departLane="best" from="-18988881#15" to="-393475369#1"/>
    <trip id="veh23" type="veh_passenger" depart="87.35" departLane="best" departSpeed="max" from="18988885#0" to="-474269506#1"/>
    <trip id="veh24" type="veh_passenger" depart="91.15" departLane="best" from="-518374068#6" to="-18994013#7"/>
    <trip id="veh25" type="veh_passenger" depart="94.95" departLane="best" departSpeed="max" from="-18997981#7" to="-769488623#1"/>
    <trip id="veh26" type="veh_passenger" depart="98.75" departLane="best" from="18989277#7" to="18990243#0"/>
    <trip id="veh27" type="veh_passenger" depart="102.55" departLane="best" from="-18993982#13" to="18996092#20"/>
    <trip id="veh28" type="veh_passenger" depart="106.34" departLane="best" from="18993910#0" to="542798783#0"/>
    <trip id="veh29" type="veh_passenger" depart="110.14" departLane="best" from="90759447#0" to="18992155#2"/>
    <trip id="veh30" type="veh_passenger" depart="113.94" departLane="best" from="393520174#8" to="29303116#1"/>
    <trip id="veh31" type="veh_passenger" depart="117.74" departLane="best" from="393520174#3" to="-18998208#6"/>
    <trip id="veh32" type="veh_passenger" depart="121.54" departLane="best" from="18995037#2" to="-769488623#18"/>
    <trip id="veh33" type="veh_passenger" depart="125.34" departLane="best" from="399319664#6" to="-393520174#4"/>
    <trip id="veh34" type="veh_passenger" depart="129.13" departLane="best" from="18990243#6" to="-688048682#1"/>
    <trip id="veh35" type="veh_passenger" depart="132.93" departLane="best" from="542798788#1" to="-101471666#0"/>
    <trip id="veh36" type="veh_passenger" depart="136.73" departLane="best" from="-18997981#5" to="18996265#0"/>
    <trip id="veh37" type="veh_passenger" depart="140.53" departLane="best" from="120133669#11" to="542798782#3"/>
    <trip id="veh38" type="veh_passenger" depart="144.33" departLane="best" from="-542798790#1" to="18996038#1"/>
    <trip id="veh39" type="veh_passenger" depart="148.12" departLane="best" from="90759447#7" to="105683268#9"/>
    <trip id="veh40" type="veh_passenger" depart="151.92" departLane="best" from="-136051675#1" to="-105683268#0"/>
    <trip id="veh41" type="veh_passenger" depart="155.72" departLane="best" from="-18988882#3" to="18991094"/>
    <trip id="veh42" type="veh_passenger" depart="159.52" departLane="best" from="29303116#0" to="769488623#26"/>
    <trip id="veh43" type="veh_passenger" depart="163.32" departLane="best" from="-1071873947#2" to="-542798788#0"/>
    <trip id="veh44" type="veh_passenger" depart="167.11" departLane="best" from="90759447#5" to="-1071873947#0"/>
    <trip id="veh45" type="veh_passenger" depart="170.91" departLane="best" from="79838549#1" to="435345707#0"/>
    <trip id="veh46" type="veh_passenger" depart="174.71" departLane="best" from="1021773038#2" to="18996092#14"/>
    <trip id="veh47" type="veh_passenger" depart="178.51" departLane="best" from="18992155#3" to="1071873947#4"/>
    <trip id="veh48" type="veh_passenger" depart="182.31" departLane="best" departSpeed="max" from="-18997981#7" to="18992155#3"/>
    <trip id="veh49" type="veh_passenger" depart="186.10" departLane="best" departSpeed="max" from="-18988884#1" to="79838551"/>
    <trip id="veh50" type="veh_passenger" depart="189.90" departLane="best" from="79838553#3" to="769488623#29"/>
    <trip id="veh51" type="veh_passenger" depart="193.70" departLane="best" from="399319664#6" to="18997981#6"/>
    <trip id="veh52" type="veh_passenger" depart="197.50" departLane="best" from="1021773037#1" to="-18993910#0"/>
    <trip id="veh53" type="veh_passenger" depart="201.30" departLane="best" from="-542798788#0" to="435345707#3"/>
    <trip id="veh54" type="veh_passenger" depart="205.09" departLane="best" from="393520174#10" to="18992155#1"/>
    <trip id="veh55" type="veh_passenger" depart="208.89" departLane="best" from="132187834#0" to="-18990320#3"/>
    <trip id="veh56" type="veh_passenger" depart="212.69" departLane="best" from="-18996244#0" to="-399319668#0"/>
    <trip id="veh57" type="veh_passenger" depart="216.49" departLane="best" from="18997981#0" to="-1071873947#0"/>
    <trip id="veh58" type="veh_passenger" depart="220.29" departLane="best" from="101471666#0" to="-399319653#4"/>
    <trip id="veh59" type="veh_passenger" depart="224.08" departLane="best" from="105683261#2" to="689244036#1"/>
    <trip id="veh60" type="veh_passenger" depart="227.88" departLane="best" from="393520174#20" to="-105683268#7"/>
    <trip id="veh61" type="veh_passenger" depart="231.68" departLane="best" from="399319664#8" to="769488623#23"/>
    <trip id="veh62" type="veh_passenger" depart="235.48" departLane="best" from="-120133669#12" to="18997981#7"/>
    <trip id="veh63" type="veh_passenger" depart="239.28" departLane="best" from="-18996265#3" to="-18988885#0"/>
    <trip id="veh64" type="veh_passenger" depart="243.07" departLane="best" from="-18997981#5" to="-435346272#0"/>
    <trip id="veh65" type="veh_passenger" depart="246.87" departLane="best" from="-769488622#0" to="-18994013#9"/>
    <trip id="veh66" type="veh_passenger" depart="250.67" departLane="best" from="105683261#9" to="18996092#20"/>
    <trip id="veh67" type="veh_passenger" depart="254.47" departLane="best" departSpeed="max" from="-18994708#1" to="-393520174#24"/>
    <trip id="veh68" type="veh_passenger" depart="258.27" departLane="best" from="90759447#4" to="18993628#1"/>
    <trip id="veh69" type="veh_passenger" depart="262.06" departLane="best" from="-769488623#26" to="1069620930#3"/>
    <trip id="veh70" type="veh_passenger" depart="265.86" departLane="best" from="-18989277#11" to="-18996085#3"/>
    <trip id="veh71" type="veh_passenger" depart="269.66" departLane="best" from="399319654#9" to="18988882#2"/>
    <trip id="veh72" type="veh_passenger" depart="273.46" departLane="best" from="-18996092#11" to="-18996085#0"/>
    <trip id="veh73" type="veh_passenger" depart="277.26" departLane="best" from="-120133669#15" to="18991710#1"/>
    <trip id="veh74" type="veh_passenger" depart="281.05" departLane="best" from="-18996092#0" to="-542798788#1"/>
    <trip id="veh75" type="veh_passenger" depart="284.85" departLane="best" departSpeed="max" from="399319655#0" to="1071873946#1"/>
    <trip id="veh76" type="veh_passenger" depart="288.65" departLane="best" from="-18996092#19" to="-18993982#7"/>
    <trip id="veh77" type="veh_passenger" depart="292.45" departLane="best" departSpeed="max" from="-18996038#2" to="-18989277#1"/>
    <trip id="veh78" type="veh_passenger" depart="296.25" departLane="best" from="692256091" to="136051675#2"/>
    <trip id="veh79" type="veh_passenger" depart="300.04" departLane="best" from="90759447#5" to="393475369#0"/>
    <trip id="veh80" type="veh_passenger" depart="303.84" departLane="best" from="393475372#5" to="18993982#17"/>
    <trip id="veh81" type="veh_passenger" depart="307.64" departLane="best" from="-165412004#2" to="-769488623#9"/>
    <trip id="veh82" type="veh_passenger" depart="311.44" departLane="best" from="-769488623#1" to="1021773034#4"/>
    <trip id="veh83" type="veh_passenger" depart="315.24" departLane="best" from="802070077#2" to="132187699#1"/>
    <trip id="veh84" type="veh_passenger" depart="319.03" departLane="best" departSpeed="max" from="-542798790#2" to="-399319662"/>
    <trip id="veh85" type="veh_passenger" depart="322.83" departLane="best" departSpeed="max" from="399319655#0" to="18996265#3"/>
    <trip id="veh86" type="veh_passenger" depart="326.63" departLane="best" from="-18994013#2" to="-90759447#11"/>
    <trip id="veh87" type="veh_passenger" depart="330.43" departLane="best" from="-692262438#0" to="-393475369#4"/>
    <trip id="veh88" type="veh_passenger" depart="334.23" departLane="best" from="-18996265#1" to="-688048682#3"/>
    <trip id="veh89" type="veh_passenger" depart="338.02" departLane="best" from="-769488623#3" to="435345707#0"/>
    <trip id="veh90" type="veh_passenger" depart="341.82" departLane="best" from="105683268#2" to="105683268#14"/>
    <trip id="veh91" type="veh_passenger" depart="345.62" departLane="best" from="90759447#9" to="399319656#1"/>
    <trip id="veh92" type="veh_passenger" depart="349.42" departLane="best" from="79838536" to="689244036#1"/>
    <trip id="veh93" type="veh_passenger" depart="353.22" departLane="best" from="-399319653#4" to="-18992155#3"/>
    <trip id="veh94" type="veh_passenger" depart="357.02" departLane="best" from="-101471666#6" to="-18994571#1"/>
    <trip id="veh95" type="veh_passenger" depart="360.81" departLane="best" departSpeed="max" from="-542798790#2" to="-105683268#8"/>
    <trip id="veh96" type="veh_passenger" depart="364.61" departLane="best" departSpeed="max" from="-518381591#3" to="802070077#3"/>
    <trip id="veh97" type="veh_passenger" depart="368.41" departLane="best" from="-18997981#5" to="38915642#1"/>
    <trip id="veh98" type="veh_passenger" depart="372.21" departLane="best" from="-79839644" to="-769488623#26"/>
    <trip id="veh99" type="veh_passenger" depart="376.01" departLane="best" from="769488623#29" to="-90759447#5"/>
    <trip id="veh100" type="veh_passenger" depart="379.80" departLane="best" from="-18992155#4" to="-393520174#10"/>
    <trip id="veh101" type="veh_passenger" depart="383.60" departLane="best" from="79838536" to="-18988881#12"/>
    <trip id="veh102" type="veh_passenger" depart="387.40" departLane="best" from="105683264#3" to="18996831#1"/>
    <trip id="veh103" type="veh_passenger" depart="391.20" departLane="best" from="-1071873946#1" to="-18988881#7"/>
    <trip id="veh104" type="veh_passenger" depart="395.00" departLane="best" from="1021773038#0" to="399319668#5"/>
    <trip id="veh105" type="veh_passenger" depart="398.79" departLane="best" from="-18993626#2" to="79838530#1"/>
    <trip id="veh106" type="veh_passenger" depart="402.59" departLane="best" from="-120134330#10" to="-18993982#11"/>
    <trip id="veh107" type="veh_passenger" depart="406.39" departLane="best" from="120134330#10" to="-18994013#14"/>
    <trip id="veh108" type="veh_passenger" depart="410.19" departLane="best" from="-18996092#16" to="-18988881#9"/>
    <trip id="veh109" type="veh_passenger" depart="413.99" departLane="best" from="435346272#0" to="18996265#0"/>
    <trip id="veh110" type="veh_passenger" depart="417.78" departLane="best" from="-120134330#10" to="-18990245#7"/>
    <trip id="veh111" type="veh_passenger" depart="421.58" departLane="best" departSpeed="max" from="-689244036#1" to="-18988881#5"/>
    <trip id="veh112" type="veh_passenger" depart="425.38" departLane="best" from="1044673254#0" to="769488622#0"/>
    <trip id="veh113" type="veh_passenger" depart="429.18" departLane="best" departSpeed="max" from="-18994710#1" to="-18996092#0"/>
    <trip id="veh114" type="veh_passenger" depart="432.98" departLane="best" from="-18996092#2" to="-688048682#1"/>
    <trip id="veh115" type="veh_passenger" depart="436.77" departLane="best" from="18991710#0" to="-393520174#18"/>
    <trip id="veh116" type="veh_passenger" depart="440.57" departLane="best" from="-120133669#19" to="-101471666#0"/>
    <trip id="veh117" type="veh_passenger" depart="444.37" departLane="best" from="-120133669#2" to="18994571#1"/>
    <trip id="veh118" type="veh_passenger" depart="448.17" departLane="best" from="-18997981#5" to="692262438#0"/>
    <trip id="veh119" type="veh_passenger" depart="451.97" departLane="best" from="399319667#2" to="-518374068#8"/>
    <trip id="veh120" type="veh_passenger" depart="455.76" departLane="best" from="393520174#22" to="18996038#2"/>
    <trip id="veh121" type="veh_passenger" depart="459.56" departLane="best" from="-136051675#1" to="802070078#3"/>
    <trip id="veh122" type="veh_passenger" depart="463.36" departLane="best" from="18990243#4" to="101471666#6"/>
    <trip id="veh123" type="veh_passenger" depart="467.16" departLane="best" departSpeed="max" from="393520174#0" to="393520174#18"/>
    <trip id="veh124" type="veh_passenger" depart="470.96" departLane="best" from="18990245#9" to="769488623#14"/>
    <trip id="veh125" type="veh_passenger" depart="474.75" departLane="best" from="-18990245#9" to="-18988881#3"/>
    <trip id="veh126" type="veh_passenger" depart="478.55" departLane="best" from="18988881#9" to="120134330#10"/>
    <trip id="veh127" type="veh_passenger" depart="482.35" departLane="best" departSpeed="max" from="-18998058" to="18989277#6"/>
    <trip id="veh128" type="veh_passenger" depart="486.15" departLane="best" from="18994013#1" to="18994013#15"/>
    <trip id="veh129" type="veh_passenger" depart="489.95" departLane="best" departSpeed="max" from="18988885#0" to="-18998208#0"/>
    <trip id="veh130" type="veh_passenger" depart="493.74" departLane="best" from="1021773034#2" to="542798788#1"/>
    <trip id="veh131" type="veh_passenger" depart="497.54" departLane="best" from="399319653#1" to="-120134330#1"/>
    <trip id="veh132" type="veh_passenger" depart="501.34" departLane="best" from="-769488623#1" to="-393475369#0"/>
    <trip id="veh133" type="veh_passenger" depart="505.14" departLane="best" from="-101471666#5" to="-18998208#6"/>
    <trip id="veh134" type="veh_passenger" depart="508.94" departLane="best" departSpeed="max" from="18988885#0" to="18997981#5"/>
    <trip id="veh135" type="veh_passenger" depart="512.73" departLane="best" from="18996085#3" to="120134330#1"/>
    <trip id="veh136" type="veh_passenger" depart="516.53" departLane="best" from="-769488623#17" to="-1021773035#0"/>
    <trip id="veh137" type="veh_passenger" depart="520.33" departLane="best" from="-120133669#4" to="518381588#1"/>
    <trip id="veh138" type="veh_passenger" depart="524.13" departLane="best" from="393520174#24" to="-18988881#4"/>
    <trip id="veh139" type="veh_passenger" depart="527.93" departLane="best" from="18991710#4" to="-18988885#0"/>
    <trip id="veh140" type="veh_passenger" depart="531.72" departLane="best" from="393520174#20" to="542798782#3"/>
    <trip id="veh141" type="veh_passenger" depart="535.52" departLane="best" from="-29303116#4" to="435345706#2"/>
    <trip id="veh142" type="veh_passenger" depart="539.32" departLane="best" from="518374069#2" to="-18994013#7"/>
    <trip id="veh143" type="veh_passenger" depart="543.12" departLane="best" from="-18996265#0" to="1071873947#4"/>
    <trip id="veh144" type="veh_passenger" depart="546.92" departLane="best" from="18997981#2" to="518381591#1"/>
    <trip id="veh145" type="veh_passenger" depart="550.71" departLane="best" from="1071873940#1" to="18990245#9"/>
    <trip id="veh146" type="veh_passenger" depart="554.51" departLane="best" from="-18992155#4" to="689244036#1"/>
    <trip id="veh147" type="veh_passenger" depart="558.31" departLane="best" departSpeed="max" from="399319663#0" to="79839641"/>
    <trip id="veh148" type="veh_passenger" depart="562.11" departLane="best" departSpeed="max" from="393520174#0" to="-518381588#0"/>
    <trip id="veh149" type="veh_passenger" depart="565.91" departLane="best" from="-105683261#9" to="18996265#0"/>
    <trip id="veh150" type="veh_passenger" depart="569.70" departLane="best" from="399319654#10" to="689244036#1"/>
    <trip id="veh151" type="veh_passenger" depart="573.50" departLane="best" from="393475369#1" to="435345707#3"/>
    <trip id="veh152" type="veh_passenger" depart="577.30" departLane="best" departSpeed="max" from="393520174#0" to="-18998208#5"/>
    <trip id="veh153" type="veh_passenger" depart="581.10" departLane="best" from="18998208#5" to="-165412004#0"/>
    <trip id="veh154" type="veh_passenger" depart="584.90" departLane="best" from="399319664#13" to="435345706#2"/>
    <trip id="veh155" type="veh_passenger" depart="588.70" departLane="best" from="-18996085#3" to="393520174#8"/>
    <trip id="veh156" type="veh_passenger" depart="592.49" departLane="best" departSpeed="max" from="-79839648#3" to="-393520174#20"/>
    <trip id="veh157" type="veh_passenger" depart="596.29" departLane="best" from="29303116#4" to="-18996085#6"/>
    <trip id="veh158" type="veh_passenger" depart="600.09" departLane="best" from="105683261#7" to="-18993982#3"/>
    <trip id="veh159" type="veh_passenger" depart="603.89" departLane="best" from="-399319653#2" to="435345707#3"/>
    <trip id="veh160" type="veh_passenger" depart="607.69" departLane="best" from="79838533#0" to="-393475369#4"/>
    <trip id="veh161" type="veh_passenger" depart="611.48" departLane="best" from="18989096#0" to="-688048682#1"/>
    <trip id="veh162" type="veh_passenger" depart="615.28" departLane="best" from="79839641" to="1071873947#3"/>
    <trip id="veh163" type="veh_passenger" depart="619.08" departLane="best" from="769488622#0" to="-18988881#3"/>
    <trip id="veh164" type="veh_passenger" depart="622.88" departLane="best" from="79838549#0" to="-18993910#0"/>
    <trip id="veh165" type="veh_passenger" depart="626.68" departLane="best" from="769488623#4" to="-18998208#2"/>
    <trip id="veh166" type="veh_passenger" depart="630.47" departLane="best" from="-18988882#1" to="-79838538"/>
    <trip id="veh167" type="veh_passenger" depart="634.27" departLane="best" from="18994013#8" to="-393520174#3"/>
    <trip id="veh168" type="veh_passenger" depart="638.07" departLane="best" from="-18995037#1" to="1057255696#1"/>
    <trip id="veh169" type="veh_passenger" depart="641.87" departLane="best" from="-542798782#0" to="18987851"/>
    <trip id="veh170" type="veh_passenger" depart="645.67" departLane="best" departSpeed="max" from="-18996265#4" to="18996085#13"/>
    <trip id="veh171" type="veh_passenger" depart="649.46" departLane="best" from="-101471666#3" to="689244036#0"/>
    <trip id="veh172" type="veh_passenger" depart="653.26" departLane="best" from="105683261#7" to="18996092#12"/>
    <trip id="veh173" type="veh_passenger" depart="657.06" departLane="best" from="18996085#3" to="-18993982#9"/>
    <trip id="veh174" type="veh_passenger" depart="660.86" departLane="best" departSpeed="max" from="-435345706#2" to="1071873946#0"/>
    <trip id="veh175" type="veh_passenger" depart="664.66" departLane="best" departSpeed="max" from="18990320#0" to="-399319654#8"/>
    <trip id="veh176" type="veh_passenger" depart="668.45" departLane="best" from="-393520174#24" to="399319667#1"/>
    <trip id="veh177" type="veh_passenger" depart="672.25" departLane="best" from="18994013#14" to="-393520174#18"/>
    <trip id="veh178" type="veh_passenger" depart="676.05" departLane="best" from="393520174#20" to="769488622#0"/>
    <trip id="veh179" type="veh_passenger" depart="679.85" departLane="best" departSpeed="max" from="-542798790#2" to="-393520174#10"/>
    <trip id="veh180" type="veh_passenger" depart="683.65" departLane="best" from="18990245#0" to="-769488623#23"/>
    <trip id="veh181" type="veh_passenger" depart="687.44" departLane="best" from="769488623#1" to="-18994013#16"/>
    <trip id="veh182" type="veh_passenger" depart="691.24" departLane="best" from="-518381591#2" to="-18990245#1"/>
    <trip id="veh183" type="veh_passenger" depart="695.04" departLane="best" from="-393520174#17" to="120133669#4"/>
    <trip id="veh184" type="veh_passenger" depart="698.84" departLane="best" from="101471666#0" to="-393520174#0"/>
    <trip id="veh185" type="veh_passenger" depart="702.64" departLane="best" from="-769488623#18" to="-18988881#15"/>
    <trip id="veh186" type="veh_passenger" depart="706.43" departLane="best" from="18990243#5" to="1021773034#2"/>
    <trip id="veh187" type="veh_passenger" depart="710.23" departLane="best" from="-769488623#3" to="-18994571#1"/>
    <trip id="veh188" type="veh_passenger" depart="714.03" departLane="best" from="90759447#6" to="542798783#0"/>
    <trip id="veh189" type="veh_passenger" depart="717.83" departLane="best" from="-29303116#4" to="-18993626#2"/>
    <trip id="veh190" type="veh_passenger" depart="721.63" departLane="best" from="132187699#0" to="1069620930#3"/>
    <trip id="veh191" type="veh_passenger" depart="725.42" departLane="best" departSpeed="max" from="18988885#0" to="-399319655#0"/>
    <trip id="veh192" type="veh_passenger" depart="729.22" departLane="best" from="18991710#1" to="-18996085#3"/>
    <trip id="veh193" type="veh_passenger" depart="733.02" departLane="best" departSpeed="max" from="-18994708#1" to="-1021773039#0"/>
    <trip id="veh194" type="veh_passenger" depart="736.82" departLane="best" from="-18996092#3" to="-1021773038#0"/>
    <trip id="veh195" type="veh_passenger" depart="740.62" departLane="best" from="-399319653#5" to="-1071873947#0"/>
    <trip id="veh196" type="veh_passenger" depart="744.41" departLane="best" from="-689244036#0" to="18991094"/>
    <trip id="veh197" type="veh_passenger" depart="748.21" departLane="best" from="18994013#8" to="18995037#0"/>
    <trip id="veh198" type="veh_passenger" depart="752.01" departLane="best" departSpeed="max" from="1021773036#0" to="-18996092#8"/>
    <trip id="veh199" type="veh_passenger" depart="755.81" departLane="best" from="18990243#6" to="-101471666#3"/>
    <trip id="veh200" type="veh_passenger" depart="759.61" departLane="best" from="18996092#13" to="-18998208#2"/>
    <trip id="veh201" type="veh_passenger" depart="763.40" departLane="best" from="18988881#9" to="-769488623#28"/>
    <trip id="veh202" type="veh_passenger" depart="767.20" departLane="best" departSpeed="max" from="1044673253" to="-105683268#13"/>
    <trip id="veh203" type="veh_passenger" depart="771.00" departLane="best" from="-18996265#0" to="-399319667#1"/>
    <trip id="veh204" type="veh_passenger" depart="774.80" departLane="best" departSpeed="max" from="-79839648#3" to="-393520174#2"/>
    <trip id="veh205" type="veh_passenger" depart="778.60" departLane="best" departSpeed="max" from="18990320#0" to="802070078#4"/>
    <trip id="veh206" type="veh_passenger" depart="782.39" departLane="best" from="120134330#4" to="769488623#26"/>
    <trip id="veh207" type="veh_passenger" depart="786.19" departLane="best" from="435372400#1" to="18990243#5"/>
    <trip id="veh208" type="veh_passenger" depart="789.99" departLane="best" from="393520174#20" to="120133669#4"/>
    <trip id="veh209" type="veh_passenger" depart="793.79" departLane="best" from="518374069#1" to="18996265#4"/>
    <trip id="veh210" type="veh_passenger" depart="797.59" departLane="best" from="90759447#7" to="-18997981#2"/>
    <trip id="veh211" type="veh_passenger" depart="801.38" departLane="best" from="-18996092#8" to="18992155#0"/>
    <trip id="veh212" type="veh_passenger" depart="805.18" departLane="best" from="-18996265#3" to="1071873940#1"/>
    <trip id="veh213" type="veh_passenger" depart="808.98" departLane="best" from="18988881#7" to="29303116#3"/>
    <trip id="veh214" type="veh_passenger" depart="812.78" departLane="best" from="-120133669#6" to="-393520174#0"/>
    <trip id="veh215" type="veh_passenger" depart="816.58" departLane="best" departSpeed="max" from="-18998058" to="393521218#1"/>
    <trip id="veh216" type="veh_passenger" depart="820.38" departLane="best" from="-105683261#9" to="18989277#8"/>
    <trip id="veh217" type="veh_passenger" depart="824.17" departLane="best" from="-18996092#12" to="18994710#1"/>
    <trip id="veh218" type="veh_passenger" depart="827.97" departLane="best" from="-18993982#14" to="1069620930#2"/>
    <trip id="veh219" type="veh_passenger" depart="831.77" departLane="best" from="-584005720#1" to="-120133669#11"/>
    <trip id="veh220" type="veh_passenger" depart="835.57" departLane="best" departSpeed="max" from="-689244036#1" to="-18994013#4"/>
    <trip id="veh221" type="veh_passenger" depart="839.37" departLane="best" from="-692256091" to="542798788#1"/>
    <trip id="veh222" type="veh_passenger" depart="843.16" departLane="best" from="120133669#10" to="18994710#1"/>
    <trip id="veh223" type="veh_passenger" depart="846.96" departLane="best" from="399319654#9" to="18998058"/>
    <trip id="veh224" type="veh_passenger" depart="850.76" departLane="best" departSpeed="max" from="-518381591#3" to="-101471666#4"/>
    <trip id="veh225" type="veh_passenger" depart="854.56" departLane="best" from="-399319664#9" to="18997981#2"/>
    <trip id="veh226" type="veh_passenger" depart="858.36" departLane="best" from="399319654#6" to="769488623#29"/>
    <trip id="veh227" type="veh_passenger" depart="862.15" departLane="best" departSpeed="max" from="-689244036#1" to="18996831#1"/>
    <trip id="veh228" type="veh_passenger" depart="865.95" departLane="best" from="105683268#11" to="18989277#12"/>
    <trip id="veh229" type="veh_passenger" depart="869.75" departLane="best" from="18996085#11" to="18996038#1"/>
    <trip id="veh230" type="veh_passenger" depart="873.55" departLane="best" from="-769488623#23" to="-1054667346#0"/>
    <trip id="veh231" type="veh_passenger" depart="877.35" departLane="best" from="-399319654#7" to="18994013#2"/>
    <trip id="veh232" type="veh_passenger" depart="881.14" departLane="best" departSpeed="max" from="-542798790#2" to="-18992155#2"/>
    <trip id="veh233" type="veh_passenger" depart="884.94" departLane="best" from="90759447#10" to="-18988885#0"/>