<?xml version="1.0" encoding="UTF-8"?>

<!-- generated on 2023-05-31 18:19:28.948075 by randomTrips.py UNKNOWN
<configuration>
    <begin value="300"/>
    <end value="1200"/>
    <net-file value="osm.net.xml.gz"/>
    <period value="0.15"/>
    <trip-attributes value="departLane=&quot;best&quot; departSpeed=&quot;max&quot; departPos=&quot;random&quot;"/>
</configuration>
-->

<routes xmlns:xsi="http://www.w3.org/2001/XMLSchema-instance" xsi:noNamespaceSchemaLocation="http://sumo.dlr.de/xsd/routes_file.xsd">
    <vType id="veh_passenger" vClass="passenger"/>
    <route id="route_3" edges="105683261#9 18996092#20"/>
    <route id="route_4" edges="435372400#1 -120133669#3"/>
    
    <trip id="0" depart="300.00" from="18989277#7" to="-105683261#10" departLane="best" departSpeed="max" departPos="random"/>
    <trip id="1" depart="300.15" from="-18996918#1" to="-18994013#8" departLane="best" departSpeed="max" departPos="random"/>
    <trip id="2" depart="300.30" from="18994571#1" to="18993626#4" departLane="best" departSpeed="max" departPos="random"/>
    <trip id="3" depart="300.45" from="435372400#1" to="-120133669#6" departLane="best" departSpeed="max" departPos="random"/>
    <trip id="4" depart="300.60" from="-689244036#1" to="-105683261#3" departLane="best" departSpeed="max" departPos="random"/>
    <trip id="5" depart="300.75" from="-18994013#8" to="105683261#4" departLane="best" departSpeed="max" departPos="random"/>
    <trip id="6" depart="300.90" from="-105683261#5" to="-18993982#20" departLane="best" departSpeed="max" departPos="random"/>
    <trip id="7" depart="301.05" from="18990245#0" to="1071873946#1" departLane="best" departSpeed="max" departPos="random"/>
    <trip id="8" depart="301.20" from="-18994571#0" to="136051675#1" departLane="best" departSpeed="max" departPos="random"/>
    <trip id="9" depart="301.35" from="29303116#2" to="-101471666#7" departLane="best" departSpeed="max" departPos="random"/>
    <trip id="10" depart="301.50" from="191170517#1" to="18993982#3" departLane="best" departSpeed="max" departPos="random"/>
    <trip id="11" depart="301.65" from="-399319654#2" to="-18990320#4" departLane="best" departSpeed="max" departPos="random"/>
    <trip id="12" depart="301.80" from="79838533#0" to="-399319654#10" departLane="best" departSpeed="max" departPos="random"/>
    <trip id="13" depart="301.95" from="-132187699#0" to="-132187699#0" departLane="best" departSpeed="max" departPos="random"/>
    <trip id="14" depart="302.10" from="399319653#3" to="18988881#4" departLane="best" departSpeed="max" departPos="random"/>
    <trip id="15" depart="302.25" from="29303116#0" to="18995037#2" departLane="best" departSpeed="max" departPos="random"/>
    <trip id="16" depart="302.40" from="105683268#3" to="79838553#3" departLane="best" departSpeed="max" departPos="random"/>
    <trip id="17" depart="302.55" from="-474269506#1" to="1071873948" departLane="best" departSpeed="max" departPos="random"/>
    <trip id="18" depart="302.70" from="393520174#17" to="18989096#0" departLane="best" departSpeed="max" departPos="random"/>
    <trip id="19" depart="302.85" from="399319656#1" to="132187697#1" departLane="best" departSpeed="max" departPos="random"/>
    <trip id="20" depart="303.00" from="18993982#16" to="-105683268#14" departLane="best" departSpeed="max" departPos="random"/>
    <trip id="21" depart="303.15" from="-18995037#1" to="-18998208#2" departLane="best" departSpeed="max" departPos="random"/>
    <trip id="22" depart="303.30" from="-120133669#3" to="-18996038#0" departLane="best" departSpeed="max" departPos="random"/>
    <trip id="23" depart="303.45" from="-136051675#2" to="-18997643#2" departLane="best" departSpeed="max" departPos="random"/>
    <trip id="24" depart="303.60" from="18989277#12" to="-399319664#9" departLane="best" departSpeed="max" departPos="random"/>
    <trip id="25" depart="303.75" from="-399319668#2" to="-18994013#10" departLane="best" departSpeed="max" departPos="random"/>
    <trip id="26" depart="303.90" from="-18996244#0" to="769488622#0" departLane="best" departSpeed="max" departPos="random"/>
    <trip id="27" depart="304.05" from="18990243#5" to="18988882#1" departLane="best" departSpeed="max" departPos="random"/>
    <trip id="28" depart="304.20" from="-18993626#2" to="18995037#1" departLane="best" departSpeed="max" departPos="random"/>
    <trip id="29" depart="304.35" from="-18992155#0" to="-518374068#4" departLane="best" departSpeed="max" departPos="random"/>
    <trip id="30" depart="304.50" from="90759447#11" to="18990245#1" departLane="best" departSpeed="max" departPos="random"/>
    <trip id="31" depart="304.65" from="1071873947#0" to="18993910#6" departLane="best" departSpeed="max" departPos="random"/>
    <trip id="32" depart="304.80" from="393520174#8" to="18996831#0" departLane="best" departSpeed="max" departPos="random"/>
    <trip id="33" depart="304.95" from="-18995037#2" to="-105683261#5" departLane="best" departSpeed="max" departPos="random"/>
    <trip id="34" depart="305.10" from="-393520174#1" to="-18996244#0" departLane="best" departSpeed="max" departPos="random"/>
    <trip id="35" depart="305.25" from="-18994013#17" to="769488623#21" departLane="best" departSpeed="max" departPos="random"/>
    <trip id="36" depart="305.40" from="399319664#8" to="-393520174#10" departLane="best" departSpeed="max" departPos="random"/>
    <trip id="37" depart="305.55" from="18990245#6" to="-542798782#0" departLane="best" departSpeed="max" departPos="random"/>
    <trip id="38" depart="305.70" from="542798788#0" to="-90759447#2" departLane="best" departSpeed="max" departPos="random"/>
    <trip id="39" depart="305.85" from="-18996092#6" to="-18996085#8" departLane="best" departSpeed="max" departPos="random"/>
    <trip id="40" depart="306.00" from="1071873947#4" to="-18996092#3" departLane="best" departSpeed="max" departPos="random"/>
    <trip id="41" depart="306.15" from="120134330#8" to="518381588#1" departLane="best" departSpeed="max" departPos="random"/>
    <trip id="42" depart="306.30" from="-542798782#3" to="-18994013#5" departLane="best" departSpeed="max" departPos="random"/>
    <trip id="43" depart="306.45" from="90759447#7" to="105683261#7" departLane="best" departSpeed="max" departPos="random"/>
    <trip id="44" depart="306.60" from="-120134330#9" to="-105683268#15" departLane="best" departSpeed="max" departPos="random"/>
    <trip id="45" depart="306.75" from="-18988881#12" to="18989277#6" departLane="best" departSpeed="max" departPos="random"/>
    <trip id="46" depart="306.90" from="18997981#3" to="-769488623#1" departLane="best" departSpeed="max" departPos="random"/>
    <trip id="47" depart="307.05" from="-1071873946#1" to="-518374068#6" departLane="best" departSpeed="max" departPos="random"/>
    <trip id="48" depart="307.20" from="90759447#6" to="105683268#7" departLane="best" departSpeed="max" departPos="random"/>
    <trip id="49" depart="307.35" from="79838553#0" to="399319664#12" departLane="best" departSpeed="max" departPos="random"/>
    <trip id="50" depart="307.50" from="-1021773038#0" to="18994013#8" departLane="best" departSpeed="max" departPos="random"/>
    <trip id="51" depart="307.65" from="18992388#1" to="1069620930#1" departLane="best" departSpeed="max" departPos="random"/>
    <trip id="52" depart="307.80" from="-18996244#0" to="18990245#1" departLane="best" departSpeed="max" departPos="random"/>
    <trip id="53" depart="307.95" from="-18988881#3" to="-769488623#4" departLane="best" departSpeed="max" departPos="random"/>
    <trip id="54" depart="308.10" from="-802070077#1" to="79838530#0" departLane="best" departSpeed="max" departPos="random"/>
    <trip id="55" depart="308.25" from="399319664#8" to="-18996092#4" departLane="best" departSpeed="max" departPos="random"/>
    <trip id="56" depart="308.40" from="1021773038#2" to="-18993628#0" departLane="best" departSpeed="max" departPos="random"/>
    <trip id="57" depart="308.55" from="542798783#0" to="399319664#9" departLane="best" departSpeed="max" departPos="random"/>
    <trip id="58" depart="308.70" from="-29303116#0" to="18990245#0" departLane="best" departSpeed="max" departPos="random"/>
    <trip id="59" depart="308.85" from="18988881#12" to="-18990320#0" departLane="best" departSpeed="max" departPos="random"/>
    <trip id="60" depart="309.00" from="18996092#14" to="1069620930#3" departLane="best" departSpeed="max" departPos="random"/>
    <trip id="61" depart="309.15" from="18996265#1" to="105683268#8" departLane="best" departSpeed="max" departPos="random"/>
    <trip id="62" depart="309.30" from="-101471666#3" to="-393520174#22" departLane="best" departSpeed="max" departPos="random"/>
    <trip id="63" depart="309.45" from="-105683261#10" to="688048682#2" departLane="best" departSpeed="max" departPos="random"/>
    <trip id="64" depart="309.60" from="399319667#1" to="393520174#24" departLane="best" departSpeed="max" departPos="random"/>
    <trip id="65" depart="309.75" from="-393475369#4" to="-1057255696#0" departLane="best" departSpeed="max" departPos="random"/>
    <trip id="66" depart="309.90" from="399319667#1" to="769488623#26" departLane="best" departSpeed="max" departPos="random"/>
    <trip id="67" depart="310.05" from="-120134330#1" to="1021773037#2" departLane="best" departSpeed="max" departPos="random"/>
    <trip id="68" depart="310.20" from="-1071873947#3" to="18996092#19" departLane="best" departSpeed="max" departPos="random"/>
    <trip id="69" depart="310.35" from="18996092#17" to="-18988885#1" departLane="best" departSpeed="max" departPos="random"/>
    <trip id="70" depart="310.50" from="101471666#0" to="1071873947#3" departLane="best" departSpeed="max" departPos="random"/>
    <trip id="71" depart="310.65" from="-18996092#6" to="399319667#2" departLane="best" departSpeed="max" departPos="random"/>
    <trip id="72" depart="310.80" from="-692256091" to="-18994013#14" departLane="best" departSpeed="max" departPos="random"/>
    <trip id="73" depart="310.95" from="105683268#5" to="18995037#2" departLane="best" departSpeed="max" departPos="random"/>
    <trip id="74" depart="311.10" from="-18993982#9" to="-393475372#5" departLane="best" departSpeed="max" departPos="random"/>
    <trip id="75" depart="311.25" from="90759447#5" to="18990320#4" departLane="best" departSpeed="max" departPos="random"/>
    <trip id="76" depart="311.40" from="-769488623#3" to="105683268#1" departLane="best" departSpeed="max" departPos="random"/>
    <trip id="77" depart="311.55" from="-18988882#3" to="-18994013#9" departLane="best" departSpeed="max" departPos="random"/>
    <trip id="78" depart="311.70" from="-399319653#5" to="132187834#1" departLane="best" departSpeed="max" departPos="random"/>
    <trip id="79" depart="311.85" from="-18996038#0" to="-18994013#6" departLane="best" departSpeed="max" departPos="random"/>
    <trip id="80" depart="312.00" from="-120133669#10" to="18989277#9" departLane="best" departSpeed="max" departPos="random"/>
    <trip id="81" depart="312.15" from="-18995037#2" to="542798768#1" departLane="best" departSpeed="max" departPos="random"/>
    <trip id="82" depart="312.30" from="399319655#0" to="-1071873947#2" departLane="best" departSpeed="max" departPos="random"/>
    <trip id="83" depart="312.45" from="-18996085#13" to="18992156#1" departLane="best" departSpeed="max" departPos="random"/>
    <trip id="84" depart="312.60" from="-18994013#5" to="-18989277#1" departLane="best" departSpeed="max" departPos="random"/>
    <trip id="85" depart="312.75" from="692256091" to="120134330#4" departLane="best" departSpeed="max" departPos="random"/>
    <trip id="86" depart="312.90" from="-90759447#9" to="18997981#2" departLane="best" departSpeed="max" departPos="random"/>
    <trip id="87" depart="313.05" from="29303116#1" to="-18993982#11" departLane="best" departSpeed="max" departPos="random"/>
    <trip id="88" depart="313.20" from="-132187787#0" to="-769488623#28" departLane="best" departSpeed="max" departPos="random"/>
    <trip id="89" depart="313.35" from="-692262438#0" to="-90759447#9" departLane="best" departSpeed="max" departPos="random"/>
    <trip id="90" depart="313.50" from="18994013#5" to="18993626#1" departLane="best" departSpeed="max" departPos="random"/>
    <trip id="91" depart="313.65" from="802070078#3" to="-132187699#2" departLane="best" departSpeed="max" departPos="random"/>
    <trip id="92" depart="313.80" from="-542798788#1" to="-399319654#3" departLane="best" departSpeed="max" departPos="random"/>
    <trip id="93" depart="313.95" from="399319656#1" to="-18996092#0" departLane="best" departSpeed="max" departPos="random"/>
    <trip id="94" depart="314.10" from="-18993982#16" to="-802070077#2" departLane="best" departSpeed="max" departPos="random"/>
    <trip id="95" depart="314.25" from="-689244036#1" to="-18997643#2" departLane="best" departSpeed="max" departPos="random"/>
    <trip id="96" depart="314.40" from="-18996092#11" to="584005720#2" departLane="best" departSpeed="max" departPos="random"/>
    <trip id="97" depart="314.55" from="-79838538" to="399319664#13" departLane="best" departSpeed="max" departPos="random"/>
    <trip id="98" depart="314.70" from="1071873940#1" to="-105683268#4" departLane="best" departSpeed="max" departPos="random"/>
    <trip id="99" depart="314.85" from="90759447#9" to="393520174#7" departLane="best" departSpeed="max" departPos="random"/>
    <trip id="100" depart="315.00" from="79838551" to="584005724#1" departLane="best" departSpeed="max" departPos="random"/>
    <trip id="101" depart="315.15" from="399319653#4" to="-18992155#0" departLane="best" departSpeed="max" departPos="random"/>
    <trip id="102" depart="315.30" from="1021773034#3" to="-18994013#15" departLane="best" departSpeed="max" departPos="random"/>
    <trip id="103" depart="315.45" from="-542798788#0" to="-1057255696#1" departLane="best" departSpeed="max" departPos="random"/>
    <trip id="104" depart="315.60" from="-474269506#1" to="802070078#4" departLane="best" departSpeed="max" departPos="random"/>
    <trip id="105" depart="315.75" from="-18996092#6" to="18997981#2" departLane="best" departSpeed="max" departPos="random"/>
    <trip id="106" depart="315.90" from="-802070077#2" to="-769488623#14" departLane="best" departSpeed="max" departPos="random"/>
    <trip id="107" depart="316.05" from="79838533#0" to="90759447#6" departLane="best" departSpeed="max" departPos="random"/>
    <trip id="108" depart="316.20" from="1071873946#1" to="18994013#6" departLane="best" departSpeed="max" departPos="random"/>
    <trip id="109" depart="316.35" from="-18991710#1" to="-29303116#1" departLane="best" departSpeed="max" departPos="random"/>
    <trip id="110" depart="316.50" from="79838549#6" to="132187699#0" departLane="best" departSpeed="max" departPos="random"/>
    <trip id="111" depart="316.65" from="105683268#8" to="18996092#0" departLane="best" departSpeed="max" departPos="random"/>
    <trip id="112" depart="316.80" from="-1069620930#1" to="132187733" departLane="best" departSpeed="max" departPos="random"/>
    <trip id="113" depart="316.95" from="1021773039#0" to="399319654#8" departLane="best" departSpeed="max" departPos="random"/>
    <trip id="114" depart="317.10" from="-18991710#2" to="79838549#0" departLane="best" departSpeed="max" departPos="random"/>
    <trip id="115" depart="317.25" from="-120133669#3" to="-18993910#5" departLane="best" departSpeed="max" departPos="random"/>
    <trip id="116" depart="317.40" from="132187733" to="18993626#3" departLane="best" departSpeed="max" departPos="random"/>
    <trip id="117" depart="317.55" from="-18996085#1" to="-18988881#8" departLane="best" departSpeed="max" departPos="random"/>
    <trip id="118" depart="317.70" from="435372400#0" to="-18996085#7" departLane="best" departSpeed="max" departPos="random"/>
    <trip id="119" depart="317.85" from="132187733" to="18989096#0" departLane="best" departSpeed="max" departPos="random"/>
    <trip id="120" depart="318.00" from="-689244035" to="132187699#3" departLane="best" departSpeed="max" departPos="random"/>
    <trip id="121" depart="318.15" from="105683264#0" to="692256091" departLane="best" departSpeed="max" departPos="random"/>
    <trip id="122" depart="318.30" from="-18994013#1" to="18994013#4" departLane="best" departSpeed="max" departPos="random"/>
    <trip id="123" depart="318.45" from="-18996085#14" to="-542798782#0" departLane="best" departSpeed="max" departPos="random"/>
    <trip id="124" depart="318.60" from="18991710#7" to="-29303116#3" departLane="best" departSpeed="max" departPos="random"/>
    <trip id="125" depart="318.75" from="-393520174#10" to="18996092#12" departLane="best" departSpeed="max" departPos="random"/>
    <trip id="126" depart="318.90" from="-120133669#11" to="-90759447#2" departLane="best" departSpeed="max" departPos="random"/>
    <trip id="127" depart="319.05" from="90759447#8" to="90759447#6" departLane="best" departSpeed="max" departPos="random"/>
    <trip id="128" depart="319.20" from="-120133669#12" to="-18994013#15" departLane="best" departSpeed="max" departPos="random"/>
    <trip id="129" depart="319.35" from="-18996092#6" to="689244036#1" departLane="best" departSpeed="max" departPos="random"/>
    <trip id="130" depart="319.50" from="399319668#1" to="435345706#1" departLane="best" departSpeed="max" departPos="random"/>
    <trip id="131" depart="319.65" from="-399319668#1" to="-18991710#0" departLane="best" departSpeed="max" departPos="random"/>
    <trip id="132" depart="319.80" from="393520174#20" to="18993982#9" departLane="best" departSpeed="max" departPos="random"/>
    <trip id="133" depart="319.95" from="18988881#16" to="90759447#1" departLane="best" departSpeed="max" departPos="random"/>
    <trip id="134" depart="320.10" from="18990245#5" to="-1021773035#0" departLane="best" departSpeed="max" departPos="random"/>
    <trip id="135" depart="320.25" from="393475369#1" to="-29303116#3" departLane="best" departSpeed="max" departPos="random"/>
    <trip id="136" depart="320.40" from="18990320#5" to="769488623#1" departLane="best" departSpeed="max" departPos="random"/>
    <trip id="137" depart="320.55" from="-18989277#6" to="-18988881#3" departLane="best" departSpeed="max" departPos="random"/>
    <trip id="138" depart="320.70" from="-18988881#0" to="1072273841#1" departLane="best" departSpeed="max" departPos="random"/>
    <trip id="139" depart="320.85" from="-18996265#3" to="18988881#5" departLane="best" departSpeed="max" departPos="random"/>
    <trip id="140" depart="321.00" from="18994013#0" to="-18993982#7" departLane="best" departSpeed="max" departPos="random"/>
    <trip id="141" depart="321.15" from="18989277#11" to="-18996092#4" departLane="best" departSpeed="max" departPos="random"/>
    <trip id="142" depart="321.30" from="1021773035#1" to="542798768#1" departLane="best" departSpeed="max" departPos="random"/>
    <trip id="143" depart="321.45" from="399319653#2" to="-120134330#7" departLane="best" departSpeed="max" departPos="random"/>
    <trip id="144" depart="321.60" from="-692262438#0" to="-18997643#1" departLane="best" departSpeed="max" departPos="random"/>
    <trip id="145" depart="321.75" from="-101471666#5" to="18996265#1" departLane="best" departSpeed="max" departPos="random"/>
    <trip id="146" depart="321.90" from="18989277#5" to="-18996092#2" departLane="best" departSpeed="max" departPos="random"/>
    <trip id="147" depart="322.05" from="18996038#0" to="1071873948" departLane="best" departSpeed="max" departPos="random"/>
    <trip id="148" depart="322.20" from="-769488623#14" to="-1021773035#2" departLane="best" departSpeed="max" departPos="random"/>
    <trip id="149" depart="322.35" from="-120133669#15" to="435345707#3" departLane="best" departSpeed="max" departPos="random"/>
    <trip id="150" depart="322.50" from="518381588#2" to="1071873947#0" departLane="best" departSpeed="max" departPos="random"/>
    <trip id="151" depart="322.65" from="393520174#20" to="132187699#2" departLane="best" departSpeed="max" departPos="random"/>
    <trip id="152" depart="322.80" from="-18990245#9" to="-18988885#0" departLane="best" departSpeed="max" departPos="random"/>
    <trip id="153" depart="322.95" from="-393475369#4" to="518381588#2" departLane="best" departSpeed="max" departPos="random"/>
    <trip id="154" depart="323.10" from="18997981#6" to="399319664#12" departLane="best" departSpeed="max" departPos="random"/>
    <trip id="155" depart="323.25" from="518374069#1" to="-18994013#10" departLane="best" departSpeed="max" departPos="random"/>
    <trip id="156" depart="323.40" from="-18996092#11" to="-136051675#0" departLane="best" departSpeed="max" departPos="random"/>
    <trip id="157" depart="323.55" from="18996265#3" to="435346272#0" departLane="best" departSpeed="max" departPos="random"/>
    <trip id="158" depart="323.70" from="-542798789#3" to="18989096#1" departLane="best" departSpeed="max" departPos="random"/>
    <trip id="159" depart="323.85" from="-18991710#1" to="688048682#3" departLane="best" departSpeed="max" departPos="random"/>
    <trip id="160" depart="324.00" from="399319663#0" to="79839648#0" departLane="best" departSpeed="max" departPos="random"/>
    <trip id="161" depart="324.15" from="29303116#3" to="435345706#2" departLane="best" departSpeed="max" departPos="random"/>
    <trip id="162" depart="324.30" from="-105683261#3" to="18996085#1" departLane="best" departSpeed="max" departPos="random"/>
    <trip id="163" depart="324.45" from="-393521218#1" to="689244035" departLane="best" departSpeed="max" departPos="random"/>
    <trip id="164" depart="324.60" from="18998208#6" to="399319664#4" departLane="best" departSpeed="max" departPos="random"/>
    <trip id="165" depart="324.75" from="29303116#3" to="-18996244#0" departLane="best" departSpeed="max" departPos="random"/>
    <trip id="166" depart="324.90" from="18997643#1" to="-165412004#2" departLane="best" departSpeed="max" departPos="random"/>
    <trip id="167" depart="325.05" from="399319664#5" to="399319664#1" departLane="best" departSpeed="max" departPos="random"/>
    <trip id="168" depart="325.20" from="-18994571#1" to="393475372#0" departLane="best" departSpeed="max" departPos="random"/>
    <trip id="169" depart="325.35" from="-90759447#0" to="-393475369#4" departLane="best" departSpeed="max" departPos="random"/>
    <trip id="170" depart="325.50" from="18997981#5" to="-18994710#0" departLane="best" departSpeed="max" departPos="random"/>
    <trip id="171" depart="325.65" from="-105683261#2" to="-18993982#13" departLane="best" departSpeed="max" departPos="random"/>
    <trip id="172" depart="325.80" from="-393520174#4" to="399319664#4" departLane="best" departSpeed="max" departPos="random"/>
    <trip id="173" depart="325.95" from="79838549#5" to="-18997981#0" departLane="best" departSpeed="max" departPos="random"/>
    <trip id="174" depart="326.10" from="18989277#9" to="-542798789#1" departLane="best" departSpeed="max" departPos="random"/>
    <trip id="175" depart="326.25" from="802070077#3" to="1069620930#1" departLane="best" departSpeed="max" departPos="random"/>
    <trip id="176" depart="326.40" from="769488623#1" to="-18988881#3" departLane="best" departSpeed="max" departPos="random"/>
    <trip id="177" depart="326.55" from="79838553#0" to="-18993628#0" departLane="best" departSpeed="max" departPos="random"/>
    <trip id="178" depart="326.70" from="79838549#0" to="-18996092#6" departLane="best" departSpeed="max" departPos="random"/>
    <trip id="179" depart="326.85" from="-18988881#11" to="-769488623#4" departLane="best" departSpeed="max" departPos="random"/>
    <trip id="180" depart="327.00" from="18994013#5" to="-393520174#1" departLane="best" departSpeed="max" departPos="random"/>
    <trip id="181" depart="327.15" from="18987851" to="105683264#0" departLane="best" departSpeed="max" departPos="random"/>
    <trip id="182" depart="327.30" from="-518374069#1" to="132187697#1" departLane="best" departSpeed="max" departPos="random"/>
    <trip id="183" depart="327.45" from="-18996092#15" to="18994013#12" departLane="best" departSpeed="max" departPos="random"/>
    <trip id="184" depart="327.60" from="-101471666#4" to="584005721#2" departLane="best" departSpeed="max" departPos="random"/>
    <trip id="185" depart="327.75" from="105683268#5" to="18994013#7" departLane="best" departSpeed="max" departPos="random"/>
    <trip id="186" depart="327.90" from="18996038#1" to="18992388#1" departLane="best" departSpeed="max" departPos="random"/>
    <trip id="187" depart="328.05" from="-399319664#9" to="-1071873947#1" departLane="best" departSpeed="max" departPos="random"/>
    <trip id="188" depart="328.20" from="18991710#0" to="-399319653#1" departLane="best" departSpeed="max" departPos="random"/>
    <trip id="189" depart="328.35" from="-393475372#5" to="399319654#10" departLane="best" departSpeed="max" departPos="random"/>
    <trip id="190" depart="328.50" from="18994013#10" to="-29303116#4" departLane="best" departSpeed="max" departPos="random"/>
    <trip id="191" depart="328.65" from="-393475369#7" to="-584005720#1" departLane="best" departSpeed="max" departPos="random"/>
    <trip id="192" depart="328.80" from="-542798788#1" to="-29303116#0" departLane="best" departSpeed="max" departPos="random"/>
    <trip id="193" depart="328.95" from="-18988885#6" to="-769488622#0" departLane="best" departSpeed="max" departPos="random"/>
    <trip id="194" depart="329.10" from="769488623#14" to="18993628#0" departLane="best" departSpeed="max" departPos="random"/>
    <trip id="195" depart="329.25" from="518381588#1" to="18988885#1" departLane="best" departSpeed="max" departPos="random"/>
    <trip id="196" depart="329.40" from="-29303116#2" to="1071873947#2" departLane="best" departSpeed="max" departPos="random"/>
    <trip id="197" depart="329.55" from="-101471666#3" to="-18998208#0" departLane="best" departSpeed="max" departPos="random"/>
    <trip id="198" depart="329.70" from="-769488623#18" to="132187699#0" departLane="best" departSpeed="max" departPos="random"/>
    <trip id="199" depart="329.85" from="18990245#6" to="-90759447#7" departLane="best" departSpeed="max" departPos="random"/>
    <trip id="200" depart="330.00" from="-79838536" to="-18994013#15" departLane="best" departSpeed="max" departPos="random"/>
    <trip id="201" depart="330.15" from="-90759447#9" to="518381591#2" departLane="best" departSpeed="max" departPos="random"/>
    <trip id="202" depart="330.30" from="18997981#6" to="-18992155#2" departLane="best" departSpeed="max" departPos="random"/>
    <trip id="203" depart="330.45" from="-120133669#9" to="105683264#4" departLane="best" departSpeed="max" departPos="random"/>
    <trip id="204" depart="330.60" from="18989277#10" to="-399319653#5" departLane="best" departSpeed="max" departPos="random"/>
    <trip id="205" depart="330.75" from="393475369#4" to="18996092#11" departLane="best" departSpeed="max" departPos="random"/>
    <trip id="206" depart="330.90" from="18991710#9" to="-18994013#9" departLane="best" departSpeed="max" departPos="random"/>
    <trip id="207" depart="331.05" from="-18993982#7" to="-105683261#10" departLane="best" departSpeed="max" departPos="random"/>
    <trip id="208" depart="331.20" from="-18996085#7" to="1021773034#1" departLane="best" departSpeed="max" departPos="random"/>
    <trip id="209" depart="331.35" from="399319653#5" to="-1071873947#3" departLane="best" departSpeed="max" departPos="random"/>
    <trip id="210" depart="331.50" from="-584005721#1" to="18989277#8" departLane="best" departSpeed="max" departPos="random"/>
    <trip id="211" depart="331.65" from="-18993982#20" to="18993982#20" departLane="best" departSpeed="max" departPos="random"/>
    <trip id="212" depart="331.80" from="1021773037#2" to="-18996085#5" departLane="best" departSpeed="max" departPos="random"/>
    <trip id="213" depart="331.95" from="18990245#7" to="-101471666#6" departLane="best" departSpeed="max" departPos="random"/>
    <trip id="214" depart="332.10" from="18996085#4" to="18996265#0" departLane="best" departSpeed="max" departPos="random"/>
    <trip id="215" depart="332.25" from="-18988881#0" to="-769488623#18" departLane="best" departSpeed="max" departPos="random"/>
    <trip id="216" depart="332.40" from="-18993628#1" to="79838533#1" departLane="best" departSpeed="max" departPos="random"/>
    <trip id="217" depart="332.55" from="105683261#5" to="-105683268#3" departLane="best" departSpeed="max" departPos="random"/>
    <trip id="218" depart="332.70" from="-18996092#11" to="399319654#3" departLane="best" departSpeed="max" departPos="random"/>
    <trip id="219" depart="332.85" from="-802070077#3" to="191170517#1" departLane="best" departSpeed="max" departPos="random"/>
    <trip id="220" depart="333.00" from="18991710#2" to="90759447#1" departLane="best" departSpeed="max" departPos="random"/>
    <trip id="221" depart="333.15" from="132187733" to="769488623#3" departLane="best" departSpeed="max" departPos="random"/>
    <trip id="222" depart="333.30" from="435372400#1" to="18988882#4" departLane="best" departSpeed="max" departPos="random"/>
    <trip id="223" depart="333.45" from="18994013#10" to="105683261#3" departLane="best" departSpeed="max" departPos="random"/>
    <trip id="224" depart="333.60" from="393520174#18" to="1071873947#2" departLane="best" departSpeed="max" departPos="random"/>
    <trip id="225" depart="333.75" from="518374068#7" to="18996085#5" departLane="best" departSpeed="max" departPos="random"/>
    <trip id="226" depart="333.90" from="-979722115" to="-18996092#18" departLane="best" departSpeed="max" departPos="random"/>
    <trip id="227" depart="334.05" from="-18996092#0" to="18990243#6" departLane="best" departSpeed="max" departPos="random"/>
    <trip id="228" depart="334.20" from="18996092#17" to="105683268#14" departLane="best" departSpeed="max" departPos="random"/>