<?xml version="1.0" encoding="UTF-8"?>

<!-- generated on 2023-03-22 10:50:26 by Eclipse SUMO netedit Version 1.14.1
<configuration xmlns:xsi="http://www.w3.org/2001/XMLSchema-instance" xsi:noNamespaceSchemaLocation="http://sumo.dlr.de/xsd/netconvertConfiguration.xsd">

    <input>
        <sumo-net-file value="/Users/lakshman/Lakshman/Projects/thesis/sumo/Exp4/data4/quickstart.net.xml"/>
    </input>

    <output>
        <output-file value="/Users/lakshman/Lakshman/Projects/thesis/sumo/Exp4/data4/quickstart.net.xml"/>
    </output>

    <processing>
        <geometry.min-radius.fix.railways value="false"/>
        <geometry.max-grade.fix value="false"/>
        <offset.disable-normalization value="true"/>
        <lefthand value="false"/>
    </processing>

    <junctions>
        <no-turnarounds value="true"/>
        <junctions.corner-detail value="5"/>
        <junctions.limit-turn-speed value="5.5"/>
        <rectangular-lane-cut value="false"/>
    </junctions>

    <pedestrian>
        <walkingareas value="false"/>
    </pedestrian>

</configuration>
-->

<net version="1.9" junctionCornerDetail="5" limitTurnSpeed="5.50" xmlns:xsi="http://www.w3.org/2001/XMLSchema-instance" xsi:noNamespaceSchemaLocation="http://sumo.dlr.de/xsd/net_file.xsd">

    <location netOffset="0.00,0.00" convBoundary="-1400.00,-600.00,-100.00,300.00" origBoundary="-10000000000.00,-10000000000.00,10000000000.00,10000000000.00" projParameter="!"/>

    <edge id=":J1_0" function="internal">
        <lane id=":J1_0_0" index="0" speed="10.29" length="20.80" shape="-989.60,304.80 -1010.40,304.80"/>
        <lane id=":J1_0_1" index="1" speed="10.29" length="20.80" shape="-989.60,301.60 -1010.40,301.60"/>
    </edge>
    <edge id=":J1_2" function="internal">
        <lane id=":J1_2_0" index="0" speed="9.26" length="19.35" shape="-989.60,301.60 -994.85,300.85 -998.60,298.60 -1000.85,294.85 -1001.60,289.60"/>
    </edge>
    <edge id=":J1_3" function="internal">
        <lane id=":J1_3_0" index="0" speed="6.51" length="9.03" shape="-995.20,289.60 -994.85,292.05 -993.80,293.80 -992.05,294.85 -989.60,295.20"/>
    </edge>
    <edge id=":J1_4" function="internal">
        <lane id=":J1_4_0" index="0" speed="9.26" length="19.35" shape="-998.40,289.60 -999.15,294.85 -1001.40,298.60 -1005.15,300.85 -1010.40,301.60"/>
    </edge>
    <edge id=":J1_5" function="internal">
        <lane id=":J1_5_0" index="0" speed="6.51" length="9.03" shape="-1010.40,295.20 -1007.95,294.85 -1006.20,293.80 -1005.15,292.05 -1004.80,289.60"/>
    </edge>
    <edge id=":J1_6" function="internal">
        <lane id=":J1_6_0" index="0" speed="13.89" length="20.80" shape="-1010.40,295.20 -989.60,295.20"/>
        <lane id=":J1_6_1" index="1" speed="13.89" length="20.80" shape="-1010.40,298.40 -989.60,298.40"/>
    </edge>
    <edge id=":J2_0" function="internal">
        <lane id=":J2_0_0" index="0" speed="6.51" length="9.03" shape="-1004.80,-89.60 -1005.15,-92.05 -1006.20,-93.80 -1007.95,-94.85 -1010.40,-95.20"/>
    </edge>
    <edge id=":J2_1" function="internal">
        <lane id=":J2_1_0" index="0" speed="22.36" length="20.80" shape="-1004.80,-89.60 -1004.80,-110.40"/>
        <lane id=":J2_1_1" index="1" speed="22.36" length="20.80" shape="-1001.60,-89.60 -1001.60,-110.40"/>
    </edge>
    <edge id=":J2_3" function="internal">
        <lane id=":J2_3_0" index="0" speed="9.26" length="5.01" shape="-1001.60,-89.60 -1000.89,-94.56"/>
    </edge>
    <edge id=":J2_16" function="internal">
        <lane id=":J2_16_0" index="0" speed="9.26" length="14.34" shape="-1000.89,-94.56 -1000.85,-94.85 -998.60,-98.60 -994.85,-100.85 -989.60,-101.60"/>
    </edge>
    <edge id=":J2_4" function="internal">
        <lane id=":J2_4_0" index="0" speed="6.51" length="9.03" shape="-989.60,-95.20 -992.05,-94.85 -993.80,-93.80 -994.85,-92.05 -995.20,-89.60"/>
    </edge>
    <edge id=":J2_5" function="internal">
        <lane id=":J2_5_0" index="0" speed="10.29" length="20.80" shape="-989.60,-95.20 -1010.40,-95.20"/>
        <lane id=":J2_5_1" index="1" speed="10.29" length="20.80" shape="-989.60,-98.40 -1010.40,-98.40"/>
    </edge>
    <edge id=":J2_7" function="internal">
        <lane id=":J2_7_0" index="0" speed="9.26" length="5.01" shape="-989.60,-98.40 -994.56,-99.11"/>
    </edge>
    <edge id=":J2_17" function="internal">
        <lane id=":J2_17_0" index="0" speed="9.26" length="14.34" shape="-994.56,-99.11 -994.85,-99.15 -998.60,-101.40 -1000.85,-105.15 -1001.60,-110.40"/>
    </edge>
    <edge id=":J2_8" function="internal">
        <lane id=":J2_8_0" index="0" speed="6.51" length="9.03" shape="-995.20,-110.40 -994.85,-107.95 -993.80,-106.20 -992.05,-105.15 -989.60,-104.80"/>
    </edge>
    <edge id=":J2_9" function="internal">
        <lane id=":J2_9_0" index="0" speed="22.36" length="20.80" shape="-995.20,-110.40 -995.20,-89.60"/>
        <lane id=":J2_9_1" index="1" speed="22.36" length="20.80" shape="-998.40,-110.40 -998.40,-89.60"/>
    </edge>
    <edge id=":J2_11" function="internal">
        <lane id=":J2_11_0" index="0" speed="9.26" length="5.01" shape="-998.40,-110.40 -999.11,-105.44"/>
    </edge>
    <edge id=":J2_18" function="internal">
        <lane id=":J2_18_0" index="0" speed="9.26" length="14.34" shape="-999.11,-105.44 -999.15,-105.15 -1001.40,-101.40 -1005.15,-99.15 -1010.40,-98.40"/>
    </edge>
    <edge id=":J2_12" function="internal">
        <lane id=":J2_12_0" index="0" speed="6.51" length="9.03" shape="-1010.40,-104.80 -1007.95,-105.15 -1006.20,-106.20 -1005.15,-107.95 -1004.80,-110.40"/>
    </edge>
    <edge id=":J2_13" function="internal">
        <lane id=":J2_13_0" index="0" speed="10.29" length="20.80" shape="-1010.40,-104.80 -989.60,-104.80"/>
        <lane id=":J2_13_1" index="1" speed="10.29" length="20.80" shape="-1010.40,-101.60 -989.60,-101.60"/>
    </edge>
    <edge id=":J2_15" function="internal">
        <lane id=":J2_15_0" index="0" speed="9.26" length="5.01" shape="-1010.40,-101.60 -1005.44,-100.89"/>
    </edge>
    <edge id=":J2_19" function="internal">
        <lane id=":J2_19_0" index="0" speed="9.26" length="14.34" shape="-1005.44,-100.89 -1005.15,-100.85 -1001.40,-98.60 -999.15,-94.85 -998.40,-89.60"/>
    </edge>
    <edge id=":J4_0" function="internal">
        <lane id=":J4_0_0" index="0" speed="16.75" length="20.80" shape="-689.60,304.80 -710.40,304.80"/>
        <lane id=":J4_0_1" index="1" speed="16.75" length="20.80" shape="-689.60,301.60 -710.40,301.60"/>
    </edge>
    <edge id=":J4_2" function="internal">
        <lane id=":J4_2_0" index="0" speed="9.26" length="5.01" shape="-689.60,301.60 -694.56,300.89"/>
    </edge>
    <edge id=":J4_8" function="internal">
        <lane id=":J4_8_0" index="0" speed="9.26" length="14.34" shape="-694.56,300.89 -694.85,300.85 -698.60,298.60 -700.85,294.85 -701.60,289.60"/>
    </edge>
    <edge id=":J4_3" function="internal">
        <lane id=":J4_3_0" index="0" speed="6.51" length="9.03" shape="-695.20,289.60 -694.85,292.05 -693.80,293.80 -692.05,294.85 -689.60,295.20"/>
    </edge>
    <edge id=":J4_4" function="internal">
        <lane id=":J4_4_0" index="0" speed="9.26" length="19.35" shape="-698.40,289.60 -699.15,294.85 -701.40,298.60 -705.15,300.85 -710.40,301.60"/>
    </edge>
    <edge id=":J4_5" function="internal">
        <lane id=":J4_5_0" index="0" speed="6.51" length="9.03" shape="-710.40,295.20 -707.95,294.85 -706.20,293.80 -705.15,292.05 -704.80,289.60"/>
    </edge>
    <edge id=":J4_6" function="internal">
        <lane id=":J4_6_0" index="0" speed="20.34" length="20.80" shape="-710.40,295.20 -689.60,295.20"/>
        <lane id=":J4_6_1" index="1" speed="20.34" length="20.80" shape="-710.40,298.40 -689.60,298.40"/>
    </edge>
    <edge id=":J5_0" function="internal">
        <lane id=":J5_0_0" index="0" speed="6.51" length="9.03" shape="-704.80,-89.60 -705.15,-92.05 -706.20,-93.80 -707.95,-94.85 -710.40,-95.20"/>
    </edge>
    <edge id=":J5_1" function="internal">
        <lane id=":J5_1_0" index="0" speed="19.25" length="20.80" shape="-704.80,-89.60 -704.80,-110.40"/>
        <lane id=":J5_1_1" index="1" speed="19.25" length="20.80" shape="-701.60,-89.60 -701.60,-110.40"/>
    </edge>
    <edge id=":J5_3" function="internal">
        <lane id=":J5_3_0" index="0" speed="9.26" length="5.01" shape="-701.60,-89.60 -700.89,-94.56"/>
    </edge>
    <edge id=":J5_16" function="internal">
        <lane id=":J5_16_0" index="0" speed="9.26" length="14.34" shape="-700.89,-94.56 -700.85,-94.85 -698.60,-98.60 -694.85,-100.85 -689.60,-101.60"/>
    </edge>
    <edge id=":J5_4" function="internal">
        <lane id=":J5_4_0" index="0" speed="6.51" length="9.03" shape="-689.60,-95.20 -692.05,-94.85 -693.80,-93.80 -694.85,-92.05 -695.20,-89.60"/>
    </edge>
    <edge id=":J5_5" function="internal">
        <lane id=":J5_5_0" index="0" speed="10.29" length="20.80" shape="-689.60,-95.20 -710.40,-95.20"/>
        <lane id=":J5_5_1" index="1" speed="10.29" length="20.80" shape="-689.60,-98.40 -710.40,-98.40"/>
    </edge>
    <edge id=":J5_7" function="internal">
        <lane id=":J5_7_0" index="0" speed="9.26" length="5.01" shape="-689.60,-98.40 -694.56,-99.11"/>
    </edge>
    <edge id=":J5_17" function="internal">
        <lane id=":J5_17_0" index="0" speed="9.26" length="14.34" shape="-694.56,-99.11 -694.85,-99.15 -698.60,-101.40 -700.85,-105.15 -701.60,-110.40"/>
    </edge>
    <edge id=":J5_8" function="internal">
        <lane id=":J5_8_0" index="0" speed="6.51" length="9.03" shape="-695.20,-110.40 -694.85,-107.95 -693.80,-106.20 -692.05,-105.15 -689.60,-104.80"/>
    </edge>
    <edge id=":J5_9" function="internal">
        <lane id=":J5_9_0" index="0" speed="19.25" length="20.80" shape="-695.20,-110.40 -695.20,-89.60"/>
        <lane id=":J5_9_1" index="1" speed="19.25" length="20.80" shape="-698.40,-110.40 -698.40,-89.60"/>
    </edge>
    <edge id=":J5_11" function="internal">
        <lane id=":J5_11_0" index="0" speed="9.26" length="5.01" shape="-698.40,-110.40 -699.11,-105.44"/>
    </edge>
    <edge id=":J5_18" function="internal">
        <lane id=":J5_18_0" index="0" speed="9.26" length="14.34" shape="-699.11,-105.44 -699.15,-105.15 -701.40,-101.40 -705.15,-99.15 -710.40,-98.40"/>
    </edge>
    <edge id=":J5_12" function="internal">
        <lane id=":J5_12_0" index="0" speed="6.51" length="9.03" shape="-710.40,-104.80 -707.95,-105.15 -706.20,-106.20 -705.15,-107.95 -704.80,-110.40"/>
    </edge>
    <edge id=":J5_13" function="internal">
        <lane id=":J5_13_0" index="0" speed="10.29" length="20.80" shape="-710.40,-104.80 -689.60,-104.80"/>
        <lane id=":J5_13_1" index="1" speed="10.29" length="20.80" shape="-710.40,-101.60 -689.60,-101.60"/>
    </edge>
    <edge id=":J5_15" function="internal">
        <lane id=":J5_15_0" index="0" speed="9.26" length="5.01" shape="-710.40,-101.60 -705.44,-100.89"/>
    </edge>
    <edge id=":J5_19" function="internal">
        <lane id=":J5_19_0" index="0" speed="9.26" length="14.34" shape="-705.44,-100.89 -705.15,-100.85 -701.40,-98.60 -699.15,-94.85 -698.40,-89.60"/>
    </edge>
    <edge id=":J7_0" function="internal">
        <lane id=":J7_0_0" index="0" speed="20.34" length="20.80" shape="-389.60,304.80 -410.40,304.80"/>
        <lane id=":J7_0_1" index="1" speed="20.34" length="20.80" shape="-389.60,301.60 -410.40,301.60"/>
    </edge>
    <edge id=":J7_2" function="internal">
        <lane id=":J7_2_0" index="0" speed="9.26" length="5.01" shape="-389.60,301.60 -394.56,300.89"/>
    </edge>
    <edge id=":J7_8" function="internal">
        <lane id=":J7_8_0" index="0" speed="9.26" length="14.34" shape="-394.56,300.89 -394.85,300.85 -398.60,298.60 -400.85,294.85 -401.60,289.60"/>
    </edge>
    <edge id=":J7_3" function="internal">
        <lane id=":J7_3_0" index="0" speed="6.51" length="9.03" shape="-395.20,289.60 -394.85,292.05 -393.80,293.80 -392.05,294.85 -389.60,295.20"/>
    </edge>
    <edge id=":J7_4" function="internal">
        <lane id=":J7_4_0" index="0" speed="9.26" length="19.35" shape="-398.40,289.60 -399.15,294.85 -401.40,298.60 -405.15,300.85 -410.40,301.60"/>
    </edge>
    <edge id=":J7_5" function="internal">
        <lane id=":J7_5_0" index="0" speed="6.51" length="9.03" shape="-410.40,295.20 -407.95,294.85 -406.20,293.80 -405.15,292.05 -404.80,289.60"/>
    </edge>
    <edge id=":J7_6" function="internal">
        <lane id=":J7_6_0" index="0" speed="20.34" length="20.80" shape="-410.40,295.20 -389.60,295.20"/>
        <lane id=":J7_6_1" index="1" speed="20.34" length="20.80" shape="-410.40,298.40 -389.60,298.40"/>
    </edge>
    <edge id=":J8_0" function="internal">
        <lane id=":J8_0_0" index="0" speed="6.51" length="9.03" shape="-404.80,-89.60 -405.15,-92.05 -406.20,-93.80 -407.95,-94.85 -410.40,-95.20"/>
    </edge>
    <edge id=":J8_1" function="internal">
        <lane id=":J8_1_0" index="0" speed="22.36" length="20.80" shape="-404.80,-89.60 -404.80,-110.40"/>
        <lane id=":J8_1_1" index="1" speed="22.36" length="20.80" shape="-401.60,-89.60 -401.60,-110.40"/>
    </edge>
    <edge id=":J8_3" function="internal">
        <lane id=":J8_3_0" index="0" speed="9.26" length="5.01" shape="-401.60,-89.60 -400.89,-94.56"/>
    </edge>
    <edge id=":J8_16" function="internal">
        <lane id=":J8_16_0" index="0" speed="9.26" length="14.34" shape="-400.89,-94.56 -400.85,-94.85 -398.60,-98.60 -394.85,-100.85 -389.60,-101.60"/>
    </edge>
    <edge id=":J8_4" function="internal">
        <lane id=":J8_4_0" index="0" speed="6.51" length="9.03" shape="-389.60,-95.20 -392.05,-94.85 -393.80,-93.80 -394.85,-92.05 -395.20,-89.60"/>
    </edge>
    <edge id=":J8_5" function="internal">
        <lane id=":J8_5_0" index="0" speed="14.77" length="20.80" shape="-389.60,-95.20 -410.40,-95.20"/>
        <lane id=":J8_5_1" index="1" speed="14.77" length="20.80" shape="-389.60,-98.40 -410.40,-98.40"/>
    </edge>
    <edge id=":J8_7" function="internal">
        <lane id=":J8_7_0" index="0" speed="9.26" length="5.01" shape="-389.60,-98.40 -394.56,-99.11"/>
    </edge>
    <edge id=":J8_17" function="internal">
        <lane id=":J8_17_0" index="0" speed="9.26" length="14.34" shape="-394.56,-99.11 -394.85,-99.15 -398.60,-101.40 -400.85,-105.15 -401.60,-110.40"/>
    </edge>
    <edge id=":J8_8" function="internal">
        <lane id=":J8_8_0" index="0" speed="6.51" length="9.03" shape="-395.20,-110.40 -394.85,-107.95 -393.80,-106.20 -392.05,-105.15 -389.60,-104.80"/>
    </edge>
    <edge id=":J8_9" function="internal">
        <lane id=":J8_9_0" index="0" speed="22.36" length="20.80" shape="-395.20,-110.40 -395.20,-89.60"/>
        <lane id=":J8_9_1" index="1" speed="22.36" length="20.80" shape="-398.40,-110.40 -398.40,-89.60"/>
    </edge>
    <edge id=":J8_11" function="internal">
        <lane id=":J8_11_0" index="0" speed="9.26" length="5.01" shape="-398.40,-110.40 -399.11,-105.44"/>
    </edge>
    <edge id=":J8_18" function="internal">
        <lane id=":J8_18_0" index="0" speed="9.26" length="14.34" shape="-399.11,-105.44 -399.15,-105.15 -401.40,-101.40 -405.15,-99.15 -410.40,-98.40"/>
    </edge>
    <edge id=":J8_12" function="internal">
        <lane id=":J8_12_0" index="0" speed="6.51" length="9.03" shape="-410.40,-104.80 -407.95,-105.15 -406.20,-106.20 -405.15,-107.95 -404.80,-110.40"/>
    </edge>
    <edge id=":J8_13" function="internal">
        <lane id=":J8_13_0" index="0" speed="14.77" length="20.80" shape="-410.40,-104.80 -389.60,-104.80"/>
        <lane id=":J8_13_1" index="1" speed="14.77" length="20.80" shape="-410.40,-101.60 -389.60,-101.60"/>
    </edge>
    <edge id=":J8_15" function="internal">
        <lane id=":J8_15_0" index="0" speed="9.26" length="5.01" shape="-410.40,-101.60 -405.44,-100.89"/>
    </edge>
    <edge id=":J8_19" function="internal">
        <lane id=":J8_19_0" index="0" speed="9.26" length="14.34" shape="-405.44,-100.89 -405.15,-100.85 -401.40,-98.60 -399.15,-94.85 -398.40,-89.60"/>
    </edge>

    <edge id="-E0" from="J2" to="J1" priority="-1">
        <lane id="-E0_0" index="0" speed="24.60" length="379.20" shape="-995.20,-89.60 -995.20,289.60"/>
        <lane id="-E0_1" index="1" speed="24.60" length="379.20" shape="-998.40,-89.60 -998.40,289.60"/>
    </edge>
    <edge id="-E1" from="J3" to="J2" priority="-1">
        <lane id="-E1_0" index="0" speed="20.12" length="489.60" shape="-995.20,-600.00 -995.20,-110.40"/>
        <lane id="-E1_1" index="1" speed="20.12" length="489.60" shape="-998.40,-600.00 -998.40,-110.40"/>
    </edge>
    <edge id="-E10" from="J1" to="J14" priority="-1">
        <lane id="-E10_0" index="0" speed="13.89" length="389.60" shape="-1010.40,304.80 -1400.00,304.80"/>
        <lane id="-E10_1" index="1" speed="13.89" length="389.60" shape="-1010.40,301.60 -1400.00,301.60"/>
    </edge>
    <edge id="-E11" from="J4" to="J1" priority="-1">
        <lane id="-E11_0" index="0" speed="6.70" length="279.20" shape="-710.40,304.80 -989.60,304.80"/>
        <lane id="-E11_1" index="1" speed="6.70" length="279.20" shape="-710.40,301.60 -989.60,301.60"/>
    </edge>
    <edge id="-E12" from="J7" to="J4" priority="-1">
        <lane id="-E12_0" index="0" speed="26.80" length="279.20" shape="-410.40,304.80 -689.60,304.80"/>
        <lane id="-E12_1" index="1" speed="26.80" length="279.20" shape="-410.40,301.60 -689.60,301.60"/>
    </edge>
    <edge id="-E13" from="J15" to="J7" priority="-1">
        <lane id="-E13_0" index="0" speed="13.89" length="289.60" shape="-100.00,304.80 -389.60,304.80"/>
        <lane id="-E13_1" index="1" speed="13.89" length="289.60" shape="-100.00,301.60 -389.60,301.60"/>
    </edge>
    <edge id="-E2" from="J5" to="J4" priority="-1">
        <lane id="-E2_0" index="0" speed="13.89" length="379.20" shape="-695.20,-89.60 -695.20,289.60"/>
        <lane id="-E2_1" index="1" speed="13.89" length="379.20" shape="-698.40,-89.60 -698.40,289.60"/>
    </edge>
    <edge id="-E3" from="J6" to="J5" priority="-1">
        <lane id="-E3_0" index="0" speed="24.60" length="489.60" shape="-695.20,-600.00 -695.20,-110.40"/>
        <lane id="-E3_1" index="1" speed="24.60" length="489.60" shape="-698.40,-600.00 -698.40,-110.40"/>
    </edge>
    <edge id="-E4" from="J8" to="J7" priority="-1">
        <lane id="-E4_0" index="0" speed="24.60" length="379.20" shape="-395.20,-89.60 -395.20,289.60"/>
        <lane id="-E4_1" index="1" speed="24.60" length="379.20" shape="-398.40,-89.60 -398.40,289.60"/>
    </edge>
    <edge id="-E5" from="J10" to="J8" priority="-1">
        <lane id="-E5_0" index="0" speed="20.12" length="489.60" shape="-395.20,-600.00 -395.20,-110.40"/>
        <lane id="-E5_1" index="1" speed="20.12" length="489.60" shape="-398.40,-600.00 -398.40,-110.40"/>
    </edge>
    <edge id="-E6" from="J2" to="J12" priority="-1">
        <lane id="-E6_0" index="0" speed="13.89" length="389.60" shape="-1010.40,-95.20 -1400.00,-95.20"/>
        <lane id="-E6_1" index="1" speed="13.89" length="389.60" shape="-1010.40,-98.40 -1400.00,-98.40"/>
    </edge>
    <edge id="-E7" from="J5" to="J2" priority="-1">
        <lane id="-E7_0" index="0" speed="6.70" length="279.20" shape="-710.40,-95.20 -989.60,-95.20"/>
        <lane id="-E7_1" index="1" speed="6.70" length="279.20" shape="-710.40,-98.40 -989.60,-98.40"/>
    </edge>
    <edge id="-E8" from="J8" to="J5" priority="-1">
        <lane id="-E8_0" index="0" speed="13.89" length="279.20" shape="-410.40,-95.20 -689.60,-95.20"/>
        <lane id="-E8_1" index="1" speed="13.89" length="279.20" shape="-410.40,-98.40 -689.60,-98.40"/>
    </edge>
    <edge id="-E9" from="J13" to="J8" priority="-1">
        <lane id="-E9_0" index="0" speed="15.64" length="289.60" shape="-100.00,-95.20 -389.60,-95.20"/>
        <lane id="-E9_1" index="1" speed="15.64" length="289.60" shape="-100.00,-98.40 -389.60,-98.40"/>
    </edge>
    <edge id="E0" from="J1" to="J2" priority="-1">
        <lane id="E0_0" index="0" speed="24.60" length="379.20" shape="-1004.80,289.60 -1004.80,-89.60"/>
        <lane id="E0_1" index="1" speed="24.60" length="379.20" shape="-1001.60,289.60 -1001.60,-89.60"/>
    </edge>
    <edge id="E1" from="J2" to="J3" priority="-1">
        <lane id="E1_0" index="0" speed="20.12" length="489.60" shape="-1004.80,-110.40 -1004.80,-600.00"/>
        <lane id="E1_1" index="1" speed="20.12" length="489.60" shape="-1001.60,-110.40 -1001.60,-600.00"/>
    </edge>
    <edge id="E10" from="J14" to="J1" priority="-1">
        <lane id="E10_0" index="0" speed="13.89" length="389.60" shape="-1400.00,295.20 -1010.40,295.20"/>
        <lane id="E10_1" index="1" speed="13.89" length="389.60" shape="-1400.00,298.40 -1010.40,298.40"/>
    </edge>
    <edge id="E11" from="J1" to="J4" priority="-1">
        <lane id="E11_0" index="0" speed="13.89" length="279.20" shape="-989.60,295.20 -710.40,295.20"/>
        <lane id="E11_1" index="1" speed="13.89" length="279.20" shape="-989.60,298.40 -710.40,298.40"/>
    </edge>
    <edge id="E12" from="J4" to="J7" priority="-1">
        <lane id="E12_0" index="0" speed="26.80" length="279.20" shape="-689.60,295.20 -410.40,295.20"/>
        <lane id="E12_1" index="1" speed="26.80" length="279.20" shape="-689.60,298.40 -410.40,298.40"/>
    </edge>
    <edge id="E13" from="J7" to="J15" priority="-1">
        <lane id="E13_0" index="0" speed="13.89" length="289.60" shape="-389.60,295.20 -100.00,295.20"/>
        <lane id="E13_1" index="1" speed="13.89" length="289.60" shape="-389.60,298.40 -100.00,298.40"/>
    </edge>
    <edge id="E2" from="J4" to="J5" priority="-1">
        <lane id="E2_0" index="0" speed="13.89" length="379.20" shape="-704.80,289.60 -704.80,-89.60"/>
        <lane id="E2_1" index="1" speed="13.89" length="379.20" shape="-701.60,289.60 -701.60,-89.60"/>
    </edge>
    <edge id="E3" from="J5" to="J6" priority="-1">
        <lane id="E3_0" index="0" speed="24.60" length="489.60" shape="-704.80,-110.40 -704.80,-600.00"/>
        <lane id="E3_1" index="1" speed="24.60" length="489.60" shape="-701.60,-110.40 -701.60,-600.00"/>
    </edge>
    <edge id="E4" from="J7" to="J8" priority="-1">
        <lane id="E4_0" index="0" speed="24.60" length="379.20" shape="-404.80,289.60 -404.80,-89.60"/>
        <lane id="E4_1" index="1" speed="24.60" length="379.20" shape="-401.60,289.60 -401.60,-89.60"/>
    </edge>
    <edge id="E5" from="J8" to="J10" priority="-1">
        <lane id="E5_0" index="0" speed="20.12" length="489.60" shape="-404.80,-110.40 -404.80,-600.00"/>
        <lane id="E5_1" index="1" speed="20.12" length="489.60" shape="-401.60,-110.40 -401.60,-600.00"/>
    </edge>
    <edge id="E6" from="J12" to="J2" priority="-1">
        <lane id="E6_0" index="0" speed="13.89" length="389.60" shape="-1400.00,-104.80 -1010.40,-104.80"/>
        <lane id="E6_1" index="1" speed="13.89" length="389.60" shape="-1400.00,-101.60 -1010.40,-101.60"/>
    </edge>
    <edge id="E7" from="J2" to="J5" priority="-1">
        <lane id="E7_0" index="0" speed="6.70" length="279.20" shape="-989.60,-104.80 -710.40,-104.80"/>
        <lane id="E7_1" index="1" speed="6.70" length="279.20" shape="-989.60,-101.60 -710.40,-101.60"/>
    </edge>
    <edge id="E8" from="J5" to="J8" priority="-1">
        <lane id="E8_0" index="0" speed="13.89" length="279.20" shape="-689.60,-104.80 -410.40,-104.80"/>
        <lane id="E8_1" index="1" speed="13.89" length="279.20" shape="-689.60,-101.60 -410.40,-101.60"/>
    </edge>
    <edge id="E9" from="J8" to="J13" priority="-1">
        <lane id="E9_0" index="0" speed="15.64" length="289.60" shape="-389.60,-104.80 -100.00,-104.80"/>
        <lane id="E9_1" index="1" speed="15.64" length="289.60" shape="-389.60,-101.60 -100.00,-101.60"/>
    </edge>

    <tlLogic id="J2" type="static" programID="0" offset="0">
        <phase duration="42" state="GGGgrrrrGGGgrrrr"/>
        <phase duration="3"  state="yyyyrrrryyyyrrrr"/>
        <phase duration="42" state="rrrrGGGgrrrrGGGg"/>
        <phase duration="3"  state="rrrryyyyrrrryyyy"/>
    </tlLogic>
    <tlLogic id="J5" type="static" programID="0" offset="0">
        <phase duration="42" state="GGGgrrrrGGGgrrrr"/>
        <phase duration="3"  state="yyyyrrrryyyyrrrr"/>
        <phase duration="42" state="rrrrGGGgrrrrGGGg"/>
        <phase duration="3"  state="rrrryyyyrrrryyyy"/>
    </tlLogic>
    <tlLogic id="J8" type="static" programID="0" offset="0">
        <phase duration="42" state="GGGgrrrrGGGgrrrr"/>
        <phase duration="3"  state="yyyyrrrryyyyrrrr"/>
        <phase duration="42" state="rrrrGGGgrrrrGGGg"/>
        <phase duration="3"  state="rrrryyyyrrrryyyy"/>
    </tlLogic>

    <junction id="J1" type="priority" x="-1000.00" y="300.00" incLanes="-E11_0 -E11_1 -E0_0 -E0_1 E10_0 E10_1" intLanes=":J1_0_0 :J1_0_1 :J1_2_0 :J1_3_0 :J1_4_0 :J1_5_0 :J1_6_0 :J1_6_1" shape="-989.60,306.40 -989.60,293.60 -991.82,293.16 -992.60,292.60 -993.16,291.82 -993.49,290.82 -993.60,289.60 -1006.40,289.60 -1006.84,291.82 -1007.40,292.60 -1008.18,293.16 -1009.18,293.49 -1010.40,293.60 -1010.40,306.40">
        <request index="0" response="00010000" foes="00010000" cont="0"/>
        <request index="1" response="00010000" foes="00010000" cont="0"/>
        <request index="2" response="11010000" foes="11010000" cont="0"/>
        <request index="3" response="00000000" foes="11000000" cont="0"/>
        <request index="4" response="00000000" foes="11000111" cont="0"/>
        <request index="5" response="00000000" foes="00000000" cont="0"/>
        <request index="6" response="00011000" foes="00011100" cont="0"/>
        <request index="7" response="00011000" foes="00011100" cont="0"/>
    </junction>
    <junction id="J10" type="dead_end" x="-400.00" y="-600.00" incLanes="E5_0 E5_1" intLanes="" shape="-400.00,-600.00 -406.40,-600.00 -400.00,-600.00"/>
    <junction id="J12" type="dead_end" x="-1400.00" y="-100.00" incLanes="-E6_0 -E6_1" intLanes="" shape="-1400.00,-100.00 -1400.00,-93.60 -1400.00,-100.00"/>
    <junction id="J13" type="dead_end" x="-100.00" y="-100.00" incLanes="E9_0 E9_1" intLanes="" shape="-100.00,-100.00 -100.00,-106.40 -100.00,-100.00"/>
    <junction id="J14" type="dead_end" x="-1400.00" y="300.00" incLanes="-E10_0 -E10_1" intLanes="" shape="-1400.00,300.00 -1400.00,306.40 -1400.00,300.00"/>
    <junction id="J15" type="dead_end" x="-100.00" y="300.00" incLanes="E13_0 E13_1" intLanes="" shape="-100.00,300.00 -100.00,293.60 -100.00,300.00"/>
    <junction id="J2" type="traffic_light" x="-1000.00" y="-100.00" incLanes="E0_0 E0_1 -E7_0 -E7_1 -E1_0 -E1_1 E6_0 E6_1" intLanes=":J2_0_0 :J2_1_0 :J2_1_1 :J2_16_0 :J2_4_0 :J2_5_0 :J2_5_1 :J2_17_0 :J2_8_0 :J2_9_0 :J2_9_1 :J2_18_0 :J2_12_0 :J2_13_0 :J2_13_1 :J2_19_0" shape="-1006.40,-89.60 -993.60,-89.60 -993.16,-91.82 -992.60,-92.60 -991.82,-93.16 -990.82,-93.49 -989.60,-93.60 -989.60,-106.40 -991.82,-106.84 -992.60,-107.40 -993.16,-108.18 -993.49,-109.18 -993.60,-110.40 -1006.40,-110.40 -1006.84,-108.18 -1007.40,-107.40 -1008.18,-106.84 -1009.18,-106.51 -1010.40,-106.40 -1010.40,-93.60 -1008.18,-93.16 -1007.40,-92.60 -1006.84,-91.82 -1006.51,-90.82">
        <request index="0"  response="0000000000000000" foes="0000000001100000" cont="0"/>
        <request index="1"  response="1000000010000000" foes="1111100011100000" cont="0"/>
        <request index="2"  response="1000000010000000" foes="1111100011100000" cont="0"/>
        <request index="3"  response="1000011010000000" foes="1110011011100000" cont="1"/>
        <request index="4"  response="0000011000000000" foes="0000011000000000" cont="0"/>
        <request index="5"  response="0000111000001111" foes="1000111000001111" cont="0"/>
        <request index="6"  response="0000111000001111" foes="1000111000001111" cont="0"/>
        <request index="7"  response="0110111000001110" foes="0110111000001110" cont="1"/>
        <request index="8"  response="0000000000000000" foes="0110000000000000" cont="0"/>
        <request index="9"  response="1000000010000000" foes="1110000011111000" cont="0"/>
        <request index="10" response="1000000010000000" foes="1110000011111000" cont="0"/>
        <request index="11" response="1000000010000110" foes="1110000011100110" cont="1"/>
        <request index="12" response="0000000000000110" foes="0000000000000110" cont="0"/>
        <request index="13" response="0000111100001110" foes="0000111110001110" cont="0"/>
        <request index="14" response="0000111100001110" foes="0000111110001110" cont="0"/>
        <request index="15" response="0000111001101110" foes="0000111001101110" cont="1"/>
    </junction>
    <junction id="J3" type="dead_end" x="-1000.00" y="-600.00" incLanes="E1_0 E1_1" intLanes="" shape="-1000.00,-600.00 -1006.40,-600.00 -1000.00,-600.00"/>
    <junction id="J4" type="priority" x="-700.00" y="300.00" incLanes="-E12_0 -E12_1 -E2_0 -E2_1 E11_0 E11_1" intLanes=":J4_0_0 :J4_0_1 :J4_8_0 :J4_3_0 :J4_4_0 :J4_5_0 :J4_6_0 :J4_6_1" shape="-689.60,306.40 -689.60,293.60 -691.82,293.16 -692.60,292.60 -693.16,291.82 -693.49,290.82 -693.60,289.60 -706.40,289.60 -706.84,291.82 -707.40,292.60 -708.18,293.16 -709.18,293.49 -710.40,293.60 -710.40,306.40">
        <request index="0" response="00000000" foes="00010000" cont="0"/>
        <request index="1" response="00000000" foes="00010000" cont="0"/>
        <request index="2" response="11000000" foes="11010000" cont="1"/>
        <request index="3" response="11000000" foes="11000000" cont="0"/>
        <request index="4" response="11000111" foes="11000111" cont="0"/>
        <request index="5" response="00000000" foes="00000000" cont="0"/>
        <request index="6" response="00000000" foes="00011100" cont="0"/>
        <request index="7" response="00000000" foes="00011100" cont="0"/>
    </junction>